*SPEF "ieee 1481-1999"
*DESIGN "macro_golden"
*DATE "11:11:11 Fri 11 11, 1111"
*VENDOR "OpenRCX"
*PROGRAM "Parallel Extraction"
*VERSION "1.0"
*DESIGN_FLOW "NAME_SCOPE LOCAL" "PIN_CAP NONE"
*DIVIDER /
*DELIMITER :
*BUS_DELIMITER []
*T_UNIT 1 NS
*C_UNIT 1 PF
*R_UNIT 1 OHM
*L_UNIT 1 HENRY

*NAME_MAP
*1 io_active
*2 io_in[0]
*3 io_in[10]
*4 io_in[11]
*5 io_in[12]
*6 io_in[13]
*7 io_in[14]
*8 io_in[15]
*9 io_in[16]
*10 io_in[17]
*11 io_in[18]
*12 io_in[19]
*13 io_in[1]
*14 io_in[20]
*15 io_in[21]
*16 io_in[22]
*17 io_in[23]
*18 io_in[24]
*19 io_in[25]
*20 io_in[26]
*21 io_in[27]
*22 io_in[28]
*23 io_in[29]
*24 io_in[2]
*25 io_in[30]
*26 io_in[31]
*27 io_in[32]
*28 io_in[33]
*29 io_in[34]
*30 io_in[35]
*31 io_in[36]
*32 io_in[37]
*33 io_in[3]
*34 io_in[4]
*35 io_in[5]
*36 io_in[6]
*37 io_in[7]
*38 io_in[8]
*39 io_in[9]
*40 net159
*41 net169
*42 net170
*43 net171
*44 net172
*45 net173
*46 net174
*47 net175
*48 net176
*49 net177
*50 net178
*51 net160
*52 net179
*53 net180
*54 net181
*55 net182
*56 net183
*57 net184
*58 net185
*59 net186
*60 net187
*61 net188
*62 net161
*63 net189
*64 net190
*65 net191
*66 net192
*67 net193
*68 net194
*69 net195
*70 net196
*71 net162
*72 net163
*73 net164
*74 net165
*75 net166
*76 net167
*77 net168
*78 io_out[0]
*79 io_out[10]
*80 io_out[11]
*81 io_out[12]
*82 io_out[13]
*83 io_out[14]
*84 io_out[15]
*85 io_out[16]
*86 io_out[17]
*87 net200
*88 net201
*89 net197
*90 net202
*91 net203
*92 net204
*93 net205
*94 net206
*95 net207
*96 net208
*97 net209
*98 net210
*99 net211
*100 net198
*101 net212
*102 net213
*103 net214
*104 net215
*105 net216
*106 net217
*107 net218
*108 net219
*109 net199
*110 io_out[4]
*111 io_out[5]
*112 io_out[6]
*113 io_out[7]
*114 io_out[8]
*115 io_out[9]
*116 la_data_in[0]
*117 la_data_in[100]
*118 la_data_in[101]
*119 la_data_in[102]
*120 la_data_in[103]
*121 la_data_in[104]
*122 la_data_in[105]
*123 la_data_in[106]
*124 la_data_in[107]
*125 la_data_in[108]
*126 la_data_in[109]
*127 la_data_in[10]
*128 la_data_in[110]
*129 la_data_in[111]
*130 la_data_in[112]
*131 la_data_in[113]
*132 la_data_in[114]
*133 la_data_in[115]
*134 la_data_in[116]
*135 la_data_in[117]
*136 la_data_in[118]
*137 la_data_in[119]
*138 la_data_in[11]
*139 la_data_in[120]
*140 la_data_in[121]
*141 la_data_in[122]
*142 la_data_in[123]
*143 la_data_in[124]
*144 la_data_in[125]
*145 la_data_in[126]
*146 la_data_in[127]
*147 la_data_in[12]
*148 la_data_in[13]
*149 la_data_in[14]
*150 la_data_in[15]
*151 la_data_in[16]
*152 la_data_in[17]
*153 la_data_in[18]
*154 la_data_in[19]
*155 la_data_in[1]
*156 la_data_in[20]
*157 la_data_in[21]
*158 la_data_in[22]
*159 la_data_in[23]
*160 la_data_in[24]
*161 la_data_in[25]
*162 la_data_in[26]
*163 la_data_in[27]
*164 la_data_in[28]
*165 la_data_in[29]
*166 la_data_in[2]
*167 la_data_in[30]
*168 la_data_in[31]
*169 la_data_in[32]
*170 la_data_in[33]
*171 la_data_in[34]
*172 la_data_in[35]
*173 la_data_in[36]
*174 la_data_in[37]
*175 la_data_in[38]
*176 la_data_in[39]
*177 la_data_in[3]
*178 la_data_in[40]
*179 la_data_in[41]
*180 la_data_in[42]
*181 la_data_in[43]
*182 la_data_in[44]
*183 la_data_in[45]
*184 la_data_in[46]
*185 la_data_in[47]
*186 la_data_in[48]
*187 la_data_in[49]
*188 la_data_in[4]
*189 la_data_in[50]
*190 la_data_in[51]
*191 la_data_in[52]
*192 la_data_in[53]
*193 la_data_in[54]
*194 la_data_in[55]
*195 la_data_in[56]
*196 la_data_in[57]
*197 la_data_in[58]
*198 la_data_in[59]
*199 la_data_in[5]
*200 la_data_in[60]
*201 la_data_in[61]
*202 la_data_in[62]
*203 la_data_in[63]
*204 la_data_in[64]
*205 la_data_in[65]
*206 la_data_in[66]
*207 la_data_in[67]
*208 la_data_in[68]
*209 la_data_in[69]
*210 la_data_in[6]
*211 la_data_in[70]
*212 la_data_in[71]
*213 la_data_in[72]
*214 la_data_in[73]
*215 la_data_in[74]
*216 la_data_in[75]
*217 la_data_in[76]
*218 la_data_in[77]
*219 la_data_in[78]
*220 la_data_in[79]
*221 la_data_in[7]
*222 la_data_in[80]
*223 la_data_in[81]
*224 la_data_in[82]
*225 la_data_in[83]
*226 la_data_in[84]
*227 la_data_in[85]
*228 la_data_in[86]
*229 la_data_in[87]
*230 la_data_in[88]
*231 la_data_in[89]
*232 la_data_in[8]
*233 la_data_in[90]
*234 la_data_in[91]
*235 la_data_in[92]
*236 la_data_in[93]
*237 la_data_in[94]
*238 la_data_in[95]
*239 la_data_in[96]
*240 la_data_in[97]
*241 la_data_in[98]
*242 la_data_in[99]
*243 la_data_in[9]
*244 net220
*245 net98
*246 net99
*247 net100
*248 net101
*249 net102
*250 net103
*251 net104
*252 net105
*253 net106
*254 net107
*255 net230
*256 net108
*257 net109
*258 net110
*259 net111
*260 net112
*261 net113
*262 net114
*263 net115
*264 net116
*265 net117
*266 net231
*267 net118
*268 net119
*269 net120
*270 net121
*271 net122
*272 net123
*273 net124
*274 net125
*275 net232
*276 net233
*277 net234
*278 net235
*279 net236
*280 net237
*281 net238
*282 net239
*283 net221
*284 net240
*285 net241
*286 net242
*287 net243
*288 net244
*289 net245
*290 net246
*291 net247
*292 net248
*293 net249
*294 net222
*295 net250
*296 net251
*297 net252
*298 net253
*299 net254
*300 net255
*301 net256
*302 net257
*303 net258
*304 net37
*305 net223
*306 net38
*307 net39
*308 net40
*309 net41
*310 net42
*311 net43
*312 net44
*313 net45
*314 net46
*315 net47
*316 net224
*317 net48
*318 net49
*319 net50
*320 net51
*321 net52
*322 net53
*323 net54
*324 net55
*325 net56
*326 net57
*327 net225
*328 net58
*329 net59
*330 net60
*331 net61
*332 net62
*333 net63
*334 net64
*335 net65
*336 net66
*337 net67
*338 net226
*339 net68
*340 net69
*341 net70
*342 net71
*343 net72
*344 net73
*345 net74
*346 net75
*347 net76
*348 net77
*349 net227
*350 net78
*351 net79
*352 net80
*353 net81
*354 net82
*355 net83
*356 net84
*357 net85
*358 net86
*359 net87
*360 net228
*361 net88
*362 net89
*363 net90
*364 net91
*365 net92
*366 net93
*367 net94
*368 net95
*369 net96
*370 net97
*371 net229
*372 la_oenb[0]
*373 la_oenb[100]
*374 la_oenb[101]
*375 la_oenb[102]
*376 la_oenb[103]
*377 la_oenb[104]
*378 la_oenb[105]
*379 la_oenb[106]
*380 la_oenb[107]
*381 la_oenb[108]
*382 la_oenb[109]
*383 la_oenb[10]
*384 la_oenb[110]
*385 la_oenb[111]
*386 la_oenb[112]
*387 la_oenb[113]
*388 la_oenb[114]
*389 la_oenb[115]
*390 la_oenb[116]
*391 la_oenb[117]
*392 la_oenb[118]
*393 la_oenb[119]
*394 la_oenb[11]
*395 la_oenb[120]
*396 la_oenb[121]
*397 la_oenb[122]
*398 la_oenb[123]
*399 la_oenb[124]
*400 la_oenb[125]
*401 la_oenb[126]
*402 la_oenb[127]
*403 la_oenb[12]
*404 la_oenb[13]
*405 la_oenb[14]
*406 la_oenb[15]
*407 la_oenb[16]
*408 la_oenb[17]
*409 la_oenb[18]
*410 la_oenb[19]
*411 la_oenb[1]
*412 la_oenb[20]
*413 la_oenb[21]
*414 la_oenb[22]
*415 la_oenb[23]
*416 la_oenb[24]
*417 la_oenb[25]
*418 la_oenb[26]
*419 la_oenb[27]
*420 la_oenb[28]
*421 la_oenb[29]
*422 la_oenb[2]
*423 la_oenb[30]
*424 la_oenb[31]
*425 la_oenb[32]
*426 la_oenb[33]
*427 la_oenb[34]
*428 la_oenb[35]
*429 la_oenb[36]
*430 la_oenb[37]
*431 la_oenb[38]
*432 la_oenb[39]
*433 la_oenb[3]
*434 la_oenb[40]
*435 la_oenb[41]
*436 la_oenb[42]
*437 la_oenb[43]
*438 la_oenb[44]
*439 la_oenb[45]
*440 la_oenb[46]
*441 la_oenb[47]
*442 la_oenb[48]
*443 la_oenb[49]
*444 la_oenb[4]
*445 la_oenb[50]
*446 la_oenb[51]
*447 la_oenb[52]
*448 la_oenb[53]
*449 la_oenb[54]
*450 la_oenb[55]
*451 la_oenb[56]
*452 la_oenb[57]
*453 la_oenb[58]
*454 la_oenb[59]
*455 la_oenb[5]
*456 la_oenb[60]
*457 la_oenb[61]
*458 la_oenb[62]
*459 la_oenb[63]
*460 la_oenb[64]
*461 la_oenb[65]
*462 la_oenb[66]
*463 la_oenb[67]
*464 la_oenb[68]
*465 la_oenb[69]
*466 la_oenb[6]
*467 la_oenb[70]
*468 la_oenb[71]
*469 la_oenb[72]
*470 la_oenb[73]
*471 la_oenb[74]
*472 la_oenb[75]
*473 la_oenb[76]
*474 la_oenb[77]
*475 la_oenb[78]
*476 la_oenb[79]
*477 la_oenb[7]
*478 la_oenb[80]
*479 la_oenb[81]
*480 la_oenb[82]
*481 la_oenb[83]
*482 la_oenb[84]
*483 la_oenb[85]
*484 la_oenb[86]
*485 la_oenb[87]
*486 la_oenb[88]
*487 la_oenb[89]
*488 la_oenb[8]
*489 la_oenb[90]
*490 la_oenb[91]
*491 la_oenb[92]
*492 la_oenb[93]
*493 la_oenb[94]
*494 la_oenb[95]
*495 la_oenb[96]
*496 la_oenb[97]
*497 la_oenb[98]
*498 la_oenb[99]
*499 la_oenb[9]
*502 wb_clk_i
*503 wb_rst_i
*504 net126
*505 wbs_adr_i[0]
*506 wbs_adr_i[10]
*507 wbs_adr_i[11]
*508 wbs_adr_i[12]
*509 wbs_adr_i[13]
*510 wbs_adr_i[14]
*511 wbs_adr_i[15]
*512 wbs_adr_i[16]
*513 wbs_adr_i[17]
*514 wbs_adr_i[18]
*515 wbs_adr_i[19]
*516 wbs_adr_i[1]
*517 wbs_adr_i[20]
*518 wbs_adr_i[21]
*519 wbs_adr_i[22]
*520 wbs_adr_i[23]
*521 wbs_adr_i[24]
*522 wbs_adr_i[25]
*523 wbs_adr_i[26]
*524 wbs_adr_i[27]
*525 wbs_adr_i[28]
*526 wbs_adr_i[29]
*527 wbs_adr_i[2]
*528 wbs_adr_i[30]
*529 wbs_adr_i[31]
*530 wbs_adr_i[3]
*531 wbs_adr_i[4]
*532 wbs_adr_i[5]
*533 wbs_adr_i[6]
*534 wbs_adr_i[7]
*535 wbs_adr_i[8]
*536 wbs_adr_i[9]
*537 wbs_cyc_i
*538 wbs_dat_i[0]
*539 wbs_dat_i[10]
*540 wbs_dat_i[11]
*541 wbs_dat_i[12]
*542 wbs_dat_i[13]
*543 wbs_dat_i[14]
*544 wbs_dat_i[15]
*545 wbs_dat_i[16]
*546 wbs_dat_i[17]
*547 wbs_dat_i[18]
*548 wbs_dat_i[19]
*549 wbs_dat_i[1]
*550 wbs_dat_i[20]
*551 wbs_dat_i[21]
*552 wbs_dat_i[22]
*553 wbs_dat_i[23]
*554 wbs_dat_i[24]
*555 wbs_dat_i[25]
*556 wbs_dat_i[26]
*557 wbs_dat_i[27]
*558 wbs_dat_i[28]
*559 wbs_dat_i[29]
*560 wbs_dat_i[2]
*561 wbs_dat_i[30]
*562 wbs_dat_i[31]
*563 wbs_dat_i[3]
*564 wbs_dat_i[4]
*565 wbs_dat_i[5]
*566 wbs_dat_i[6]
*567 wbs_dat_i[7]
*568 wbs_dat_i[8]
*569 wbs_dat_i[9]
*570 net127
*571 net137
*572 net138
*573 net139
*574 net140
*575 net141
*576 net142
*577 net143
*578 net144
*579 net145
*580 net146
*581 net128
*582 net147
*583 net148
*584 net149
*585 net150
*586 net151
*587 net152
*588 net153
*589 net154
*590 net155
*591 net156
*592 net129
*593 net157
*594 net158
*595 net130
*596 net131
*597 net132
*598 net133
*599 net134
*600 net135
*601 net136
*602 wbs_sel_i[0]
*603 wbs_sel_i[1]
*604 wbs_sel_i[2]
*605 wbs_sel_i[3]
*606 wbs_stb_i
*607 wbs_we_i
*608 _000_
*609 _001_
*610 _002_
*611 _003_
*612 _004_
*613 _005_
*614 _006_
*615 _007_
*616 _008_
*617 _009_
*618 _010_
*619 _011_
*620 _012_
*621 _013_
*622 _014_
*623 _015_
*624 _016_
*625 _017_
*626 _018_
*627 _019_
*628 _020_
*629 _021_
*630 _022_
*631 _023_
*632 _024_
*633 _025_
*634 _026_
*635 _027_
*636 _028_
*637 _029_
*638 _030_
*639 _031_
*640 _032_
*641 _033_
*642 _034_
*643 _035_
*644 _036_
*645 _037_
*646 _038_
*647 _039_
*648 _040_
*649 _041_
*650 _042_
*651 _043_
*652 _044_
*653 _045_
*654 _046_
*655 _047_
*656 _048_
*657 _049_
*658 _050_
*659 _051_
*660 _052_
*661 _053_
*662 _054_
*663 _055_
*664 _056_
*665 _057_
*666 _058_
*667 _059_
*668 _060_
*669 _061_
*670 _062_
*671 _063_
*672 _064_
*673 _065_
*674 _066_
*675 _067_
*676 _068_
*677 _069_
*678 _070_
*679 _071_
*680 _072_
*681 _073_
*682 _074_
*683 _075_
*684 _076_
*685 _077_
*686 _078_
*687 _079_
*688 _080_
*689 _081_
*690 _082_
*691 _083_
*692 _084_
*693 _085_
*694 _086_
*695 _087_
*696 _088_
*697 _089_
*698 _090_
*699 _091_
*700 _092_
*701 _093_
*702 _094_
*703 _095_
*704 _096_
*705 _097_
*706 _098_
*707 _099_
*708 _100_
*709 _101_
*710 _102_
*711 _103_
*712 _104_
*713 _105_
*714 _106_
*715 _107_
*716 _108_
*717 _109_
*718 _110_
*719 _111_
*720 _112_
*721 _113_
*722 _114_
*723 _115_
*724 _116_
*725 _117_
*726 _118_
*727 net1
*728 net10
*729 net11
*730 net12
*731 net13
*732 net14
*733 net15
*734 net16
*735 net17
*736 net18
*737 net19
*738 net2
*739 net20
*740 net21
*741 net22
*742 net23
*743 net24
*744 net25
*745 net26
*746 net27
*747 net28
*748 net29
*749 net3
*750 net30
*751 net31
*752 net32
*753 net33
*754 net34
*755 net35
*756 net36
*757 net4
*758 net5
*759 net6
*760 net7
*761 net8
*762 net9
*763 ANTENNA__119__I
*764 ANTENNA__121__I
*765 ANTENNA__123__A1
*766 ANTENNA__124__A1
*767 ANTENNA__124__A2
*768 ANTENNA__124__A3
*769 ANTENNA__125__A1
*770 ANTENNA__126__A1
*771 ANTENNA__126__A2
*772 ANTENNA__127__I
*773 ANTENNA__128__A2
*774 ANTENNA__128__B2
*775 ANTENNA__129__A1
*776 ANTENNA__132__I
*777 ANTENNA__133__A2
*778 ANTENNA__134__A2
*779 ANTENNA__135__A2
*780 ANTENNA__136__I
*781 ANTENNA__138__A1
*782 ANTENNA__138__A3
*783 ANTENNA__141__A1
*784 ANTENNA__141__A2
*785 ANTENNA__142__A1
*786 ANTENNA__147__I
*787 ANTENNA__149__I
*788 ANTENNA__150__A1
*789 ANTENNA__151__I
*790 ANTENNA__152__A1
*791 ANTENNA__152__A2
*792 ANTENNA__152__A3
*793 ANTENNA__153__A1
*794 ANTENNA__154__A1
*795 ANTENNA__155__A1
*796 ANTENNA__156__I
*797 ANTENNA__157__A1
*798 ANTENNA__157__A2
*799 ANTENNA__157__B2
*800 ANTENNA__158__A1
*801 ANTENNA__159__A1
*802 ANTENNA__161__I
*803 ANTENNA__162__A2
*804 ANTENNA__162__B
*805 ANTENNA__165__I
*806 ANTENNA__167__A1
*807 ANTENNA__169__A1
*808 ANTENNA__170__A1
*809 ANTENNA__170__B2
*810 ANTENNA__171__A1
*811 ANTENNA__171__B
*812 ANTENNA__175__A1
*813 ANTENNA__176__I
*814 ANTENNA__177__A1
*815 ANTENNA__177__A2
*816 ANTENNA__178__A2
*817 ANTENNA__179__B1
*818 ANTENNA__180__I
*819 ANTENNA__182__A1
*820 ANTENNA__183__A1
*821 ANTENNA__184__I
*822 ANTENNA__185__A1
*823 ANTENNA__185__A2
*824 ANTENNA__186__A1
*825 ANTENNA__187__A1
*826 ANTENNA__188__A1
*827 ANTENNA__189__I
*828 ANTENNA__190__A1
*829 ANTENNA__190__A2
*830 ANTENNA__191__A1
*831 ANTENNA__192__I
*832 ANTENNA__193__A1
*833 ANTENNA__193__A2
*834 ANTENNA__195__A1
*835 ANTENNA__195__A2
*836 ANTENNA__197__A1
*837 ANTENNA__198__A1
*838 ANTENNA__198__A2
*839 ANTENNA__200__A2
*840 ANTENNA__201__A2
*841 ANTENNA__203__I
*842 ANTENNA__204__S
*843 ANTENNA__206__A2
*844 ANTENNA__207__A2
*845 ANTENNA__209__I
*846 ANTENNA__210__S
*847 ANTENNA__211__A1
*848 ANTENNA__211__A2
*849 ANTENNA__213__A1
*850 ANTENNA__213__A2
*851 ANTENNA__215__A1
*852 ANTENNA__216__A1
*853 ANTENNA__216__A2
*854 ANTENNA__218__I
*855 ANTENNA__219__B
*856 ANTENNA__219__C
*857 ANTENNA__222__A2
*858 ANTENNA__223__I
*859 ANTENNA__224__A2
*860 ANTENNA__224__B
*861 ANTENNA__224__C
*862 ANTENNA__225__A2
*863 ANTENNA__225__A3
*864 ANTENNA__226__A1
*865 ANTENNA__227__I
*866 ANTENNA__228__A1
*867 ANTENNA__228__A2
*868 ANTENNA__229__A1
*869 ANTENNA__229__A2
*870 ANTENNA__231__A1
*871 ANTENNA__231__A2
*872 ANTENNA__232__A1
*873 ANTENNA__233__A1
*874 ANTENNA__233__B
*875 ANTENNA__234__A1
*876 ANTENNA__234__A2
*877 ANTENNA__235__I0
*878 ANTENNA__235__S
*879 ANTENNA__236__A2
*880 ANTENNA__237__A1
*881 ANTENNA__238__A1
*882 ANTENNA__239__A1
*883 ANTENNA__239__B
*884 ANTENNA__241__S
*885 ANTENNA__242__A1
*886 ANTENNA__243__A1
*887 ANTENNA__243__C
*888 ANTENNA__244__A1
*889 ANTENNA__244__A2
*890 ANTENNA__244__A3
*891 ANTENNA__245__A1
*892 ANTENNA__245__A2
*893 ANTENNA__246__A2
*894 ANTENNA__246__B1
*895 ANTENNA__247__A2
*896 ANTENNA__249__I
*897 ANTENNA__250__A2
*898 ANTENNA_input10_I
*899 ANTENNA_input11_I
*900 ANTENNA_input12_I
*901 ANTENNA_input13_I
*902 ANTENNA_input14_I
*903 ANTENNA_input15_I
*904 ANTENNA_input16_I
*905 ANTENNA_input17_I
*906 ANTENNA_input18_I
*907 ANTENNA_input19_I
*908 ANTENNA_input1_I
*909 ANTENNA_input20_I
*910 ANTENNA_input21_I
*911 ANTENNA_input2_I
*912 ANTENNA_input3_I
*913 ANTENNA_input4_I
*914 ANTENNA_input5_I
*915 ANTENNA_input6_I
*916 ANTENNA_input7_I
*917 ANTENNA_input8_I
*918 ANTENNA_input9_I
*919 ANTENNA_output22_I
*920 ANTENNA_output23_I
*921 ANTENNA_output24_I
*922 ANTENNA_output25_I
*923 ANTENNA_output26_I
*924 ANTENNA_output31_I
*925 ANTENNA_output32_I
*926 ANTENNA_output33_I
*927 ANTENNA_output34_I
*928 ANTENNA_output35_I
*929 ANTENNA_output36_I
*930 FILLER_0_1004
*931 FILLER_0_1008
*932 FILLER_0_1013
*933 FILLER_0_1017
*934 FILLER_0_102
*935 FILLER_0_1022
*936 FILLER_0_1026
*937 FILLER_0_1031
*938 FILLER_0_1035
*939 FILLER_0_104
*940 FILLER_0_1040
*941 FILLER_0_1044
*942 FILLER_0_1049
*943 FILLER_0_1052
*944 FILLER_0_1058
*945 FILLER_0_1062
*946 FILLER_0_1067
*947 FILLER_0_107
*948 FILLER_0_1071
*949 FILLER_0_1076
*950 FILLER_0_1084
*951 FILLER_0_1087
*952 FILLER_0_1092
*953 FILLER_0_1098
*954 FILLER_0_1104
*955 FILLER_0_1112
*956 FILLER_0_112
*957 FILLER_0_1122
*958 FILLER_0_1127
*959 FILLER_0_1133
*960 FILLER_0_1139
*961 FILLER_0_1143
*962 FILLER_0_1148
*963 FILLER_0_1152
*964 FILLER_0_1154
*965 FILLER_0_1157
*966 FILLER_0_116
*967 FILLER_0_1162
*968 FILLER_0_1168
*969 FILLER_0_1170
*970 FILLER_0_1175
*971 FILLER_0_1179
*972 FILLER_0_1184
*973 FILLER_0_1188
*974 FILLER_0_1192
*975 FILLER_0_1197
*976 FILLER_0_1203
*977 FILLER_0_1211
*978 FILLER_0_1215
*979 FILLER_0_122
*980 FILLER_0_1220
*981 FILLER_0_1224
*982 FILLER_0_1227
*983 FILLER_0_1232
*984 FILLER_0_1238
*985 FILLER_0_1242
*986 FILLER_0_1247
*987 FILLER_0_1251
*988 FILLER_0_1256
*989 FILLER_0_126
*990 FILLER_0_1262
*991 FILLER_0_1267
*992 FILLER_0_1269
*993 FILLER_0_1274
*994 FILLER_0_1278
*995 FILLER_0_128
*996 FILLER_0_1283
*997 FILLER_0_1287
*998 FILLER_0_1292
*999 FILLER_0_1294
*1000 FILLER_0_1297
*1001 FILLER_0_1302
*1002 FILLER_0_1310
*1003 FILLER_0_1314
*1004 FILLER_0_1319
*1005 FILLER_0_1323
*1006 FILLER_0_1328
*1007 FILLER_0_133
*1008 FILLER_0_1332
*1009 FILLER_0_1337
*1010 FILLER_0_1341
*1011 FILLER_0_1346
*1012 FILLER_0_1350
*1013 FILLER_0_1355
*1014 FILLER_0_1359
*1015 FILLER_0_1364
*1016 FILLER_0_1367
*1017 FILLER_0_1373
*1018 FILLER_0_1377
*1019 FILLER_0_1382
*1020 FILLER_0_1386
*1021 FILLER_0_139
*1022 FILLER_0_1391
*1023 FILLER_0_1399
*1024 FILLER_0_1402
*1025 FILLER_0_1407
*1026 FILLER_0_1413
*1027 FILLER_0_1419
*1028 FILLER_0_142
*1029 FILLER_0_1427
*1030 FILLER_0_1437
*1031 FILLER_0_1442
*1032 FILLER_0_1448
*1033 FILLER_0_1454
*1034 FILLER_0_1458
*1035 FILLER_0_146
*1036 FILLER_0_1463
*1037 FILLER_0_1467
*1038 FILLER_0_1469
*1039 FILLER_0_1472
*1040 FILLER_0_1477
*1041 FILLER_0_1483
*1042 FILLER_0_1485
*1043 FILLER_0_1490
*1044 FILLER_0_1494
*1045 FILLER_0_1499
*1046 FILLER_0_1503
*1047 FILLER_0_1507
*1048 FILLER_0_1512
*1049 FILLER_0_1518
*1050 FILLER_0_152
*1051 FILLER_0_1526
*1052 FILLER_0_1534
*1053 FILLER_0_1538
*1054 FILLER_0_1542
*1055 FILLER_0_156
*1056 FILLER_0_1574
*1057 FILLER_0_1577
*1058 FILLER_0_161
*1059 FILLER_0_165
*1060 FILLER_0_170
*1061 FILLER_0_174
*1062 FILLER_0_177
*1063 FILLER_0_182
*1064 FILLER_0_188
*1065 FILLER_0_192
*1066 FILLER_0_197
*1067 FILLER_0_2
*1068 FILLER_0_201
*1069 FILLER_0_206
*1070 FILLER_0_212
*1071 FILLER_0_217
*1072 FILLER_0_219
*1073 FILLER_0_224
*1074 FILLER_0_228
*1075 FILLER_0_233
*1076 FILLER_0_237
*1077 FILLER_0_242
*1078 FILLER_0_244
*1079 FILLER_0_247
*1080 FILLER_0_252
*1081 FILLER_0_260
*1082 FILLER_0_264
*1083 FILLER_0_269
*1084 FILLER_0_273
*1085 FILLER_0_278
*1086 FILLER_0_282
*1087 FILLER_0_287
*1088 FILLER_0_291
*1089 FILLER_0_296
*1090 FILLER_0_300
*1091 FILLER_0_305
*1092 FILLER_0_309
*1093 FILLER_0_314
*1094 FILLER_0_317
*1095 FILLER_0_323
*1096 FILLER_0_327
*1097 FILLER_0_332
*1098 FILLER_0_336
*1099 FILLER_0_34
*1100 FILLER_0_341
*1101 FILLER_0_349
*1102 FILLER_0_352
*1103 FILLER_0_354
*1104 FILLER_0_359
*1105 FILLER_0_363
*1106 FILLER_0_368
*1107 FILLER_0_37
*1108 FILLER_0_372
*1109 FILLER_0_377
*1110 FILLER_0_383
*1111 FILLER_0_387
*1112 FILLER_0_392
*1113 FILLER_0_396
*1114 FILLER_0_401
*1115 FILLER_0_405
*1116 FILLER_0_410
*1117 FILLER_0_414
*1118 FILLER_0_419
*1119 FILLER_0_422
*1120 FILLER_0_428
*1121 FILLER_0_432
*1122 FILLER_0_437
*1123 FILLER_0_441
*1124 FILLER_0_446
*1125 FILLER_0_454
*1126 FILLER_0_457
*1127 FILLER_0_459
*1128 FILLER_0_464
*1129 FILLER_0_468
*1130 FILLER_0_473
*1131 FILLER_0_477
*1132 FILLER_0_482
*1133 FILLER_0_484
*1134 FILLER_0_489
*1135 FILLER_0_492
*1136 FILLER_0_500
*1137 FILLER_0_504
*1138 FILLER_0_509
*1139 FILLER_0_513
*1140 FILLER_0_518
*1141 FILLER_0_524
*1142 FILLER_0_527
*1143 FILLER_0_53
*1144 FILLER_0_531
*1145 FILLER_0_536
*1146 FILLER_0_540
*1147 FILLER_0_545
*1148 FILLER_0_553
*1149 FILLER_0_559
*1150 FILLER_0_562
*1151 FILLER_0_566
*1152 FILLER_0_572
*1153 FILLER_0_576
*1154 FILLER_0_581
*1155 FILLER_0_585
*1156 FILLER_0_590
*1157 FILLER_0_594
*1158 FILLER_0_597
*1159 FILLER_0_602
*1160 FILLER_0_608
*1161 FILLER_0_61
*1162 FILLER_0_612
*1163 FILLER_0_617
*1164 FILLER_0_621
*1165 FILLER_0_626
*1166 FILLER_0_63
*1167 FILLER_0_632
*1168 FILLER_0_637
*1169 FILLER_0_639
*1170 FILLER_0_644
*1171 FILLER_0_648
*1172 FILLER_0_653
*1173 FILLER_0_657
*1174 FILLER_0_662
*1175 FILLER_0_664
*1176 FILLER_0_667
*1177 FILLER_0_672
*1178 FILLER_0_68
*1179 FILLER_0_680
*1180 FILLER_0_684
*1181 FILLER_0_689
*1182 FILLER_0_693
*1183 FILLER_0_698
*1184 FILLER_0_702
*1185 FILLER_0_707
*1186 FILLER_0_711
*1187 FILLER_0_716
*1188 FILLER_0_72
*1189 FILLER_0_720
*1190 FILLER_0_725
*1191 FILLER_0_729
*1192 FILLER_0_734
*1193 FILLER_0_737
*1194 FILLER_0_743
*1195 FILLER_0_747
*1196 FILLER_0_752
*1197 FILLER_0_756
*1198 FILLER_0_761
*1199 FILLER_0_769
*1200 FILLER_0_772
*1201 FILLER_0_774
*1202 FILLER_0_779
*1203 FILLER_0_783
*1204 FILLER_0_788
*1205 FILLER_0_792
*1206 FILLER_0_797
*1207 FILLER_0_80
*1208 FILLER_0_807
*1209 FILLER_0_812
*1210 FILLER_0_818
*1211 FILLER_0_824
*1212 FILLER_0_828
*1213 FILLER_0_833
*1214 FILLER_0_837
*1215 FILLER_0_839
*1216 FILLER_0_842
*1217 FILLER_0_847
*1218 FILLER_0_853
*1219 FILLER_0_855
*1220 FILLER_0_86
*1221 FILLER_0_860
*1222 FILLER_0_864
*1223 FILLER_0_869
*1224 FILLER_0_873
*1225 FILLER_0_877
*1226 FILLER_0_882
*1227 FILLER_0_888
*1228 FILLER_0_896
*1229 FILLER_0_900
*1230 FILLER_0_905
*1231 FILLER_0_909
*1232 FILLER_0_912
*1233 FILLER_0_917
*1234 FILLER_0_923
*1235 FILLER_0_927
*1236 FILLER_0_932
*1237 FILLER_0_936
*1238 FILLER_0_941
*1239 FILLER_0_947
*1240 FILLER_0_952
*1241 FILLER_0_954
*1242 FILLER_0_959
*1243 FILLER_0_963
*1244 FILLER_0_968
*1245 FILLER_0_972
*1246 FILLER_0_977
*1247 FILLER_0_979
*1248 FILLER_0_98
*1249 FILLER_0_982
*1250 FILLER_0_987
*1251 FILLER_0_995
*1252 FILLER_0_999
*1253 FILLER_100_101
*1254 FILLER_100_1024
*1255 FILLER_100_1028
*1256 FILLER_100_1031
*1257 FILLER_100_105
*1258 FILLER_100_108
*1259 FILLER_100_1095
*1260 FILLER_100_1099
*1261 FILLER_100_1102
*1262 FILLER_100_1166
*1263 FILLER_100_1170
*1264 FILLER_100_1173
*1265 FILLER_100_1237
*1266 FILLER_100_1241
*1267 FILLER_100_1244
*1268 FILLER_100_1308
*1269 FILLER_100_1312
*1270 FILLER_100_1315
*1271 FILLER_100_1379
*1272 FILLER_100_1383
*1273 FILLER_100_1386
*1274 FILLER_100_1450
*1275 FILLER_100_1454
*1276 FILLER_100_1457
*1277 FILLER_100_1521
*1278 FILLER_100_1525
*1279 FILLER_100_1528
*1280 FILLER_100_1560
*1281 FILLER_100_1576
*1282 FILLER_100_1580
*1283 FILLER_100_172
*1284 FILLER_100_176
*1285 FILLER_100_179
*1286 FILLER_100_2
*1287 FILLER_100_243
*1288 FILLER_100_247
*1289 FILLER_100_250
*1290 FILLER_100_314
*1291 FILLER_100_318
*1292 FILLER_100_321
*1293 FILLER_100_34
*1294 FILLER_100_37
*1295 FILLER_100_385
*1296 FILLER_100_389
*1297 FILLER_100_392
*1298 FILLER_100_456
*1299 FILLER_100_460
*1300 FILLER_100_463
*1301 FILLER_100_527
*1302 FILLER_100_531
*1303 FILLER_100_534
*1304 FILLER_100_598
*1305 FILLER_100_602
*1306 FILLER_100_605
*1307 FILLER_100_669
*1308 FILLER_100_673
*1309 FILLER_100_676
*1310 FILLER_100_740
*1311 FILLER_100_744
*1312 FILLER_100_747
*1313 FILLER_100_811
*1314 FILLER_100_815
*1315 FILLER_100_818
*1316 FILLER_100_882
*1317 FILLER_100_886
*1318 FILLER_100_889
*1319 FILLER_100_953
*1320 FILLER_100_957
*1321 FILLER_100_960
*1322 FILLER_101_1060
*1323 FILLER_101_1064
*1324 FILLER_101_1067
*1325 FILLER_101_1131
*1326 FILLER_101_1135
*1327 FILLER_101_1138
*1328 FILLER_101_1202
*1329 FILLER_101_1206
*1330 FILLER_101_1209
*1331 FILLER_101_1273
*1332 FILLER_101_1277
*1333 FILLER_101_1280
*1334 FILLER_101_1344
*1335 FILLER_101_1348
*1336 FILLER_101_1351
*1337 FILLER_101_137
*1338 FILLER_101_141
*1339 FILLER_101_1415
*1340 FILLER_101_1419
*1341 FILLER_101_1422
*1342 FILLER_101_144
*1343 FILLER_101_1486
*1344 FILLER_101_1490
*1345 FILLER_101_1493
*1346 FILLER_101_1557
*1347 FILLER_101_1561
*1348 FILLER_101_1564
*1349 FILLER_101_1580
*1350 FILLER_101_2
*1351 FILLER_101_208
*1352 FILLER_101_212
*1353 FILLER_101_215
*1354 FILLER_101_279
*1355 FILLER_101_283
*1356 FILLER_101_286
*1357 FILLER_101_350
*1358 FILLER_101_354
*1359 FILLER_101_357
*1360 FILLER_101_421
*1361 FILLER_101_425
*1362 FILLER_101_428
*1363 FILLER_101_492
*1364 FILLER_101_496
*1365 FILLER_101_499
*1366 FILLER_101_563
*1367 FILLER_101_567
*1368 FILLER_101_570
*1369 FILLER_101_634
*1370 FILLER_101_638
*1371 FILLER_101_641
*1372 FILLER_101_66
*1373 FILLER_101_70
*1374 FILLER_101_705
*1375 FILLER_101_709
*1376 FILLER_101_712
*1377 FILLER_101_73
*1378 FILLER_101_776
*1379 FILLER_101_780
*1380 FILLER_101_783
*1381 FILLER_101_847
*1382 FILLER_101_851
*1383 FILLER_101_854
*1384 FILLER_101_918
*1385 FILLER_101_922
*1386 FILLER_101_925
*1387 FILLER_101_989
*1388 FILLER_101_993
*1389 FILLER_101_996
*1390 FILLER_102_101
*1391 FILLER_102_1024
*1392 FILLER_102_1028
*1393 FILLER_102_1031
*1394 FILLER_102_105
*1395 FILLER_102_108
*1396 FILLER_102_1095
*1397 FILLER_102_1099
*1398 FILLER_102_1102
*1399 FILLER_102_1166
*1400 FILLER_102_1170
*1401 FILLER_102_1173
*1402 FILLER_102_1237
*1403 FILLER_102_1241
*1404 FILLER_102_1244
*1405 FILLER_102_1308
*1406 FILLER_102_1312
*1407 FILLER_102_1315
*1408 FILLER_102_1379
*1409 FILLER_102_1383
*1410 FILLER_102_1386
*1411 FILLER_102_1450
*1412 FILLER_102_1454
*1413 FILLER_102_1457
*1414 FILLER_102_1521
*1415 FILLER_102_1525
*1416 FILLER_102_1528
*1417 FILLER_102_1560
*1418 FILLER_102_1576
*1419 FILLER_102_1580
*1420 FILLER_102_172
*1421 FILLER_102_176
*1422 FILLER_102_179
*1423 FILLER_102_2
*1424 FILLER_102_243
*1425 FILLER_102_247
*1426 FILLER_102_250
*1427 FILLER_102_314
*1428 FILLER_102_318
*1429 FILLER_102_321
*1430 FILLER_102_34
*1431 FILLER_102_37
*1432 FILLER_102_385
*1433 FILLER_102_389
*1434 FILLER_102_392
*1435 FILLER_102_456
*1436 FILLER_102_460
*1437 FILLER_102_463
*1438 FILLER_102_527
*1439 FILLER_102_531
*1440 FILLER_102_534
*1441 FILLER_102_598
*1442 FILLER_102_602
*1443 FILLER_102_605
*1444 FILLER_102_669
*1445 FILLER_102_673
*1446 FILLER_102_676
*1447 FILLER_102_740
*1448 FILLER_102_744
*1449 FILLER_102_747
*1450 FILLER_102_811
*1451 FILLER_102_815
*1452 FILLER_102_818
*1453 FILLER_102_882
*1454 FILLER_102_886
*1455 FILLER_102_889
*1456 FILLER_102_953
*1457 FILLER_102_957
*1458 FILLER_102_960
*1459 FILLER_103_1060
*1460 FILLER_103_1064
*1461 FILLER_103_1067
*1462 FILLER_103_1131
*1463 FILLER_103_1135
*1464 FILLER_103_1138
*1465 FILLER_103_1202
*1466 FILLER_103_1206
*1467 FILLER_103_1209
*1468 FILLER_103_1273
*1469 FILLER_103_1277
*1470 FILLER_103_1280
*1471 FILLER_103_1344
*1472 FILLER_103_1348
*1473 FILLER_103_1351
*1474 FILLER_103_137
*1475 FILLER_103_141
*1476 FILLER_103_1415
*1477 FILLER_103_1419
*1478 FILLER_103_1422
*1479 FILLER_103_144
*1480 FILLER_103_1486
*1481 FILLER_103_1490
*1482 FILLER_103_1493
*1483 FILLER_103_1557
*1484 FILLER_103_1561
*1485 FILLER_103_1564
*1486 FILLER_103_1580
*1487 FILLER_103_2
*1488 FILLER_103_208
*1489 FILLER_103_212
*1490 FILLER_103_215
*1491 FILLER_103_279
*1492 FILLER_103_283
*1493 FILLER_103_286
*1494 FILLER_103_350
*1495 FILLER_103_354
*1496 FILLER_103_357
*1497 FILLER_103_421
*1498 FILLER_103_425
*1499 FILLER_103_428
*1500 FILLER_103_492
*1501 FILLER_103_496
*1502 FILLER_103_499
*1503 FILLER_103_563
*1504 FILLER_103_567
*1505 FILLER_103_570
*1506 FILLER_103_634
*1507 FILLER_103_638
*1508 FILLER_103_641
*1509 FILLER_103_66
*1510 FILLER_103_70
*1511 FILLER_103_705
*1512 FILLER_103_709
*1513 FILLER_103_712
*1514 FILLER_103_73
*1515 FILLER_103_776
*1516 FILLER_103_780
*1517 FILLER_103_783
*1518 FILLER_103_847
*1519 FILLER_103_851
*1520 FILLER_103_854
*1521 FILLER_103_918
*1522 FILLER_103_922
*1523 FILLER_103_925
*1524 FILLER_103_989
*1525 FILLER_103_993
*1526 FILLER_103_996
*1527 FILLER_104_101
*1528 FILLER_104_1024
*1529 FILLER_104_1028
*1530 FILLER_104_1031
*1531 FILLER_104_105
*1532 FILLER_104_108
*1533 FILLER_104_1095
*1534 FILLER_104_1099
*1535 FILLER_104_1102
*1536 FILLER_104_1166
*1537 FILLER_104_1170
*1538 FILLER_104_1173
*1539 FILLER_104_1237
*1540 FILLER_104_1241
*1541 FILLER_104_1244
*1542 FILLER_104_1308
*1543 FILLER_104_1312
*1544 FILLER_104_1315
*1545 FILLER_104_1379
*1546 FILLER_104_1383
*1547 FILLER_104_1386
*1548 FILLER_104_1450
*1549 FILLER_104_1454
*1550 FILLER_104_1457
*1551 FILLER_104_1521
*1552 FILLER_104_1525
*1553 FILLER_104_1528
*1554 FILLER_104_1560
*1555 FILLER_104_1576
*1556 FILLER_104_1580
*1557 FILLER_104_172
*1558 FILLER_104_176
*1559 FILLER_104_179
*1560 FILLER_104_2
*1561 FILLER_104_243
*1562 FILLER_104_247
*1563 FILLER_104_250
*1564 FILLER_104_314
*1565 FILLER_104_318
*1566 FILLER_104_321
*1567 FILLER_104_34
*1568 FILLER_104_37
*1569 FILLER_104_385
*1570 FILLER_104_389
*1571 FILLER_104_392
*1572 FILLER_104_456
*1573 FILLER_104_460
*1574 FILLER_104_463
*1575 FILLER_104_527
*1576 FILLER_104_531
*1577 FILLER_104_534
*1578 FILLER_104_598
*1579 FILLER_104_602
*1580 FILLER_104_605
*1581 FILLER_104_669
*1582 FILLER_104_673
*1583 FILLER_104_676
*1584 FILLER_104_740
*1585 FILLER_104_744
*1586 FILLER_104_747
*1587 FILLER_104_811
*1588 FILLER_104_815
*1589 FILLER_104_818
*1590 FILLER_104_882
*1591 FILLER_104_886
*1592 FILLER_104_889
*1593 FILLER_104_953
*1594 FILLER_104_957
*1595 FILLER_104_960
*1596 FILLER_105_1060
*1597 FILLER_105_1064
*1598 FILLER_105_1067
*1599 FILLER_105_1131
*1600 FILLER_105_1135
*1601 FILLER_105_1138
*1602 FILLER_105_1202
*1603 FILLER_105_1206
*1604 FILLER_105_1209
*1605 FILLER_105_1273
*1606 FILLER_105_1277
*1607 FILLER_105_1280
*1608 FILLER_105_1344
*1609 FILLER_105_1348
*1610 FILLER_105_1351
*1611 FILLER_105_137
*1612 FILLER_105_141
*1613 FILLER_105_1415
*1614 FILLER_105_1419
*1615 FILLER_105_1422
*1616 FILLER_105_144
*1617 FILLER_105_1486
*1618 FILLER_105_1490
*1619 FILLER_105_1493
*1620 FILLER_105_1557
*1621 FILLER_105_1561
*1622 FILLER_105_1564
*1623 FILLER_105_1580
*1624 FILLER_105_2
*1625 FILLER_105_208
*1626 FILLER_105_212
*1627 FILLER_105_215
*1628 FILLER_105_279
*1629 FILLER_105_283
*1630 FILLER_105_286
*1631 FILLER_105_350
*1632 FILLER_105_354
*1633 FILLER_105_357
*1634 FILLER_105_421
*1635 FILLER_105_425
*1636 FILLER_105_428
*1637 FILLER_105_492
*1638 FILLER_105_496
*1639 FILLER_105_499
*1640 FILLER_105_563
*1641 FILLER_105_567
*1642 FILLER_105_570
*1643 FILLER_105_634
*1644 FILLER_105_638
*1645 FILLER_105_641
*1646 FILLER_105_66
*1647 FILLER_105_70
*1648 FILLER_105_705
*1649 FILLER_105_709
*1650 FILLER_105_712
*1651 FILLER_105_73
*1652 FILLER_105_776
*1653 FILLER_105_780
*1654 FILLER_105_783
*1655 FILLER_105_847
*1656 FILLER_105_851
*1657 FILLER_105_854
*1658 FILLER_105_918
*1659 FILLER_105_922
*1660 FILLER_105_925
*1661 FILLER_105_989
*1662 FILLER_105_993