*SPEF "ieee 1481-1999"
*DESIGN "macro_golden"
*DATE "11:11:11 Fri 11 11, 1111"
*VENDOR "OpenRCX"
*PROGRAM "Parallel Extraction"
*VERSION "1.0"
*DESIGN_FLOW "NAME_SCOPE LOCAL" "PIN_CAP NONE"
*DIVIDER /
*DELIMITER :
*BUS_DELIMITER []
*T_UNIT 1 NS
*C_UNIT 1 PF
*R_UNIT 1 OHM
*L_UNIT 1 HENRY

*NAME_MAP
*1 io_active
*2 io_in[0]
*3 io_in[10]
*4 io_in[11]
*5 io_in[12]
*6 io_in[13]
*7 io_in[14]
*8 io_in[15]
*9 io_in[16]
*10 io_in[17]
*11 io_in[18]
*12 io_in[19]
*13 io_in[1]
*14 io_in[20]
*15 io_in[21]
*16 io_in[22]
*17 io_in[23]
*18 io_in[24]
*19 io_in[25]
*20 io_in[26]
*21 io_in[27]
*22 io_in[28]
*23 io_in[29]
*24 io_in[2]
*25 io_in[30]
*26 io_in[31]
*27 io_in[32]
*28 io_in[33]
*29 io_in[34]
*30 io_in[35]
*31 io_in[36]
*32 io_in[37]
*33 io_in[3]
*34 io_in[4]
*35 io_in[5]
*36 io_in[6]
*37 io_in[7]
*38 io_in[8]
*39 io_in[9]
*40 net95
*41 net105
*42 net106
*43 net107
*44 net108
*45 net109
*46 net110
*47 net111
*48 net112
*49 net113
*50 net114
*51 net96
*52 net115
*53 net116
*54 net117
*55 net118
*56 net119
*57 net120
*58 net121
*59 net122
*60 net123
*61 net124
*62 net97
*63 net125
*64 net126
*65 net127
*66 net128
*67 net129
*68 net130
*69 net131
*70 net132
*71 net98
*72 net99
*73 net100
*74 net101
*75 net102
*76 net103
*77 net104
*78 io_out[0]
*79 io_out[10]
*80 io_out[11]
*81 io_out[12]
*82 io_out[13]
*83 io_out[14]
*84 io_out[15]
*85 io_out[16]
*86 io_out[17]
*87 net136
*88 net137
*89 net133
*90 net138
*91 net139
*92 net140
*93 net141
*94 net142
*95 net143
*96 net144
*97 net145
*98 net146
*99 net147
*100 net134
*101 net148
*102 net149
*103 net150
*104 net151
*105 net152
*106 net153
*107 net154
*108 net155
*109 net135
*110 io_out[4]
*111 io_out[5]
*112 io_out[6]
*113 io_out[7]
*114 io_out[8]
*115 io_out[9]
*116 la_data_in[0]
*117 la_data_in[10]
*118 la_data_in[11]
*119 la_data_in[12]
*120 la_data_in[13]
*121 la_data_in[14]
*122 la_data_in[15]
*123 la_data_in[16]
*124 la_data_in[17]
*125 la_data_in[18]
*126 la_data_in[19]
*127 la_data_in[1]
*128 la_data_in[20]
*129 la_data_in[21]
*130 la_data_in[22]
*131 la_data_in[23]
*132 la_data_in[24]
*133 la_data_in[25]
*134 la_data_in[26]
*135 la_data_in[27]
*136 la_data_in[28]
*137 la_data_in[29]
*138 la_data_in[2]
*139 la_data_in[30]
*140 la_data_in[31]
*141 la_data_in[32]
*142 la_data_in[33]
*143 la_data_in[34]
*144 la_data_in[35]
*145 la_data_in[36]
*146 la_data_in[37]
*147 la_data_in[38]
*148 la_data_in[39]
*149 la_data_in[3]
*150 la_data_in[40]
*151 la_data_in[41]
*152 la_data_in[42]
*153 la_data_in[43]
*154 la_data_in[44]
*155 la_data_in[45]
*156 la_data_in[46]
*157 la_data_in[47]
*158 la_data_in[48]
*159 la_data_in[49]
*160 la_data_in[4]
*161 la_data_in[50]
*162 la_data_in[51]
*163 la_data_in[52]
*164 la_data_in[53]
*165 la_data_in[54]
*166 la_data_in[55]
*167 la_data_in[56]
*168 la_data_in[57]
*169 la_data_in[58]
*170 la_data_in[59]
*171 la_data_in[5]
*172 la_data_in[60]
*173 la_data_in[61]
*174 la_data_in[62]
*175 la_data_in[63]
*176 la_data_in[6]
*177 la_data_in[7]
*178 la_data_in[8]
*179 la_data_in[9]
*180 net156
*181 net166
*182 net167
*183 net168
*184 net169
*185 net170
*186 net171
*187 net172
*188 net173
*189 net174
*190 net175
*191 net157
*192 net176
*193 net177
*194 net178
*195 net179
*196 net180
*197 net181
*198 net182
*199 net183
*200 net184
*201 net185
*202 net158
*203 net186
*204 net187
*205 net188
*206 net189
*207 net190
*208 net191
*209 net192
*210 net193
*211 net194
*212 net37
*213 net159
*214 net38
*215 net39
*216 net40
*217 net41
*218 net42
*219 net43
*220 net44
*221 net45
*222 net46
*223 net47
*224 net160
*225 net48
*226 net49
*227 net50
*228 net51
*229 net52
*230 net53
*231 net54
*232 net55
*233 net56
*234 net57
*235 net161
*236 net58
*237 net59
*238 net60
*239 net61
*240 net162
*241 net163
*242 net164
*243 net165
*244 la_oenb[0]
*245 la_oenb[10]
*246 la_oenb[11]
*247 la_oenb[12]
*248 la_oenb[13]
*249 la_oenb[14]
*250 la_oenb[15]
*251 la_oenb[16]
*252 la_oenb[17]
*253 la_oenb[18]
*254 la_oenb[19]
*255 la_oenb[1]
*256 la_oenb[20]
*257 la_oenb[21]
*258 la_oenb[22]
*259 la_oenb[23]
*260 la_oenb[24]
*261 la_oenb[25]
*262 la_oenb[26]
*263 la_oenb[27]
*264 la_oenb[28]
*265 la_oenb[29]
*266 la_oenb[2]
*267 la_oenb[30]
*268 la_oenb[31]
*269 la_oenb[32]
*270 la_oenb[33]
*271 la_oenb[34]
*272 la_oenb[35]
*273 la_oenb[36]
*274 la_oenb[37]
*275 la_oenb[38]
*276 la_oenb[39]
*277 la_oenb[3]
*278 la_oenb[40]
*279 la_oenb[41]
*280 la_oenb[42]
*281 la_oenb[43]
*282 la_oenb[44]
*283 la_oenb[45]
*284 la_oenb[46]
*285 la_oenb[47]
*286 la_oenb[48]
*287 la_oenb[49]
*288 la_oenb[4]
*289 la_oenb[50]
*290 la_oenb[51]
*291 la_oenb[52]
*292 la_oenb[53]
*293 la_oenb[54]
*294 la_oenb[55]
*295 la_oenb[56]
*296 la_oenb[57]
*297 la_oenb[58]
*298 la_oenb[59]
*299 la_oenb[5]
*300 la_oenb[60]
*301 la_oenb[61]
*302 la_oenb[62]
*303 la_oenb[63]
*304 la_oenb[6]
*305 la_oenb[7]
*306 la_oenb[8]
*307 la_oenb[9]
*310 wb_clk_i
*311 wb_rst_i
*312 net62
*313 wbs_adr_i[0]
*314 wbs_adr_i[10]
*315 wbs_adr_i[11]
*316 wbs_adr_i[12]
*317 wbs_adr_i[13]
*318 wbs_adr_i[14]
*319 wbs_adr_i[15]
*320 wbs_adr_i[16]
*321 wbs_adr_i[17]
*322 wbs_adr_i[18]
*323 wbs_adr_i[19]
*324 wbs_adr_i[1]
*325 wbs_adr_i[20]
*326 wbs_adr_i[21]
*327 wbs_adr_i[22]
*328 wbs_adr_i[23]
*329 wbs_adr_i[24]
*330 wbs_adr_i[25]
*331 wbs_adr_i[26]
*332 wbs_adr_i[27]
*333 wbs_adr_i[28]
*334 wbs_adr_i[29]
*335 wbs_adr_i[2]
*336 wbs_adr_i[30]
*337 wbs_adr_i[31]
*338 wbs_adr_i[3]
*339 wbs_adr_i[4]
*340 wbs_adr_i[5]
*341 wbs_adr_i[6]
*342 wbs_adr_i[7]
*343 wbs_adr_i[8]
*344 wbs_adr_i[9]
*345 wbs_cyc_i
*346 wbs_dat_i[0]
*347 wbs_dat_i[10]
*348 wbs_dat_i[11]
*349 wbs_dat_i[12]
*350 wbs_dat_i[13]
*351 wbs_dat_i[14]
*352 wbs_dat_i[15]
*353 wbs_dat_i[16]
*354 wbs_dat_i[17]
*355 wbs_dat_i[18]
*356 wbs_dat_i[19]
*357 wbs_dat_i[1]
*358 wbs_dat_i[20]
*359 wbs_dat_i[21]
*360 wbs_dat_i[22]
*361 wbs_dat_i[23]
*362 wbs_dat_i[24]
*363 wbs_dat_i[25]
*364 wbs_dat_i[26]
*365 wbs_dat_i[27]
*366 wbs_dat_i[28]
*367 wbs_dat_i[29]
*368 wbs_dat_i[2]
*369 wbs_dat_i[30]
*370 wbs_dat_i[31]
*371 wbs_dat_i[3]
*372 wbs_dat_i[4]
*373 wbs_dat_i[5]
*374 wbs_dat_i[6]
*375 wbs_dat_i[7]
*376 wbs_dat_i[8]
*377 wbs_dat_i[9]
*378 net63
*379 net73
*380 net74
*381 net75
*382 net76
*383 net77
*384 net78
*385 net79
*386 net80
*387 net81
*388 net82
*389 net64
*390 net83
*391 net84
*392 net85
*393 net86
*394 net87
*395 net88
*396 net89
*397 net90
*398 net91
*399 net92
*400 net65
*401 net93
*402 net94
*403 net66
*404 net67
*405 net68
*406 net69
*407 net70
*408 net71
*409 net72
*410 wbs_sel_i[0]
*411 wbs_sel_i[1]
*412 wbs_sel_i[2]
*413 wbs_sel_i[3]
*414 wbs_stb_i
*415 wbs_we_i
*416 _000_
*417 _001_
*418 _002_
*419 _003_
*420 _004_
*421 _005_
*422 _006_
*423 _007_
*424 _008_
*425 _009_
*426 _010_
*427 _011_
*428 _012_
*429 _013_
*430 _014_
*431 _015_
*432 _016_
*433 _017_
*434 _018_
*435 _019_
*436 _020_
*437 _021_
*438 _022_
*439 _023_
*440 _024_
*441 _025_
*442 _026_
*443 _027_
*444 _028_
*445 _029_
*446 _030_
*447 _031_
*448 _032_
*449 _033_
*450 _034_
*451 _035_
*452 _036_
*453 _037_
*454 _038_
*455 _039_
*456 _040_
*457 _041_
*458 _042_
*459 _043_
*460 _044_
*461 _045_
*462 _046_
*463 _047_
*464 _048_
*465 _049_
*466 _050_
*467 _051_
*468 _052_
*469 _053_
*470 _054_
*471 _055_
*472 _056_
*473 _057_
*474 _058_
*475 _059_
*476 _060_
*477 _061_
*478 _062_
*479 _063_
*480 _064_
*481 _065_
*482 _066_
*483 _067_
*484 _068_
*485 _069_
*486 _070_
*487 _071_
*488 _072_
*489 _073_
*490 _074_
*491 _075_
*492 _076_
*493 _077_
*494 _078_
*495 _079_
*496 _080_
*497 _081_
*498 _082_
*499 _083_
*500 _084_
*501 _085_
*502 _086_
*503 _087_
*504 _088_
*505 _089_
*506 _090_
*507 _091_
*508 _092_
*509 _093_
*510 _094_
*511 _095_
*512 _096_
*513 _097_
*514 _098_
*515 _099_
*516 _100_
*517 _101_
*518 _102_
*519 _103_
*520 _104_
*521 _105_
*522 _106_
*523 _107_
*524 _108_
*525 _109_
*526 _110_
*527 _111_
*528 _112_
*529 _113_
*530 _114_
*531 _115_
*532 _116_
*533 _117_
*534 _118_
*535 net1
*536 net10
*537 net11
*538 net12
*539 net13
*540 net14
*541 net15
*542 net16
*543 net17
*544 net18
*545 net19
*546 net2
*547 net20
*548 net21
*549 net22
*550 net23
*551 net24
*552 net25
*553 net26
*554 net27
*555 net28
*556 net29
*557 net3
*558 net30
*559 net31
*560 net32
*561 net33
*562 net34
*563 net35
*564 net36
*565 net4
*566 net5
*567 net6
*568 net7
*569 net8
*570 net9
*571 ANTENNA__119__I
*572 ANTENNA__123__A1
*573 ANTENNA__124__A1
*574 ANTENNA__124__A2
*575 ANTENNA__124__A3
*576 ANTENNA__125__A1
*577 ANTENNA__126__A1
*578 ANTENNA__127__I
*579 ANTENNA__128__A2
*580 ANTENNA__128__B2
*581 ANTENNA__129__A1
*582 ANTENNA__132__I
*583 ANTENNA__133__A2
*584 ANTENNA__134__A2
*585 ANTENNA__135__A2
*586 ANTENNA__136__I
*587 ANTENNA__138__A1
*588 ANTENNA__138__A3
*589 ANTENNA__141__A1
*590 ANTENNA__142__A1
*591 ANTENNA__147__I
*592 ANTENNA__150__A1
*593 ANTENNA__151__I
*594 ANTENNA__152__A1
*595 ANTENNA__152__A3
*596 ANTENNA__154__A1
*597 ANTENNA__155__A1
*598 ANTENNA__156__I
*599 ANTENNA__157__A1
*600 ANTENNA__157__A2
*601 ANTENNA__157__B2
*602 ANTENNA__158__A1
*603 ANTENNA__159__A1
*604 ANTENNA__160__I
*605 ANTENNA__161__I
*606 ANTENNA__162__A2
*607 ANTENNA__162__B
*608 ANTENNA__167__A1
*609 ANTENNA__169__A1
*610 ANTENNA__170__A1
*611 ANTENNA__171__A1
*612 ANTENNA__176__I
*613 ANTENNA__177__A2
*614 ANTENNA__178__A2
*615 ANTENNA__179__B1
*616 ANTENNA__179__B2
*617 ANTENNA__180__I
*618 ANTENNA__181__I
*619 ANTENNA__182__A1
*620 ANTENNA__183__A1
*621 ANTENNA__184__I
*622 ANTENNA__189__I
*623 ANTENNA__192__I
*624 ANTENNA__193__A2
*625 ANTENNA__195__A2
*626 ANTENNA__197__A1
*627 ANTENNA__198__A1
*628 ANTENNA__198__A2
*629 ANTENNA__203__I
*630 ANTENNA__206__B
*631 ANTENNA__209__I
*632 ANTENNA__210__S
*633 ANTENNA__211__A2
*634 ANTENNA__215__A1
*635 ANTENNA__216__A2
*636 ANTENNA__219__C
*637 ANTENNA__224__A2
*638 ANTENNA__224__C
*639 ANTENNA__225__A3
*640 ANTENNA__227__I
*641 ANTENNA__228__A1
*642 ANTENNA__228__A2
*643 ANTENNA__229__A1
*644 ANTENNA__229__A2
*645 ANTENNA__231__A1
*646 ANTENNA__232__A1
*647 ANTENNA__233__A1
*648 ANTENNA__233__B
*649 ANTENNA__235__I0
*650 ANTENNA__237__A1
*651 ANTENNA__238__A1
*652 ANTENNA__239__A1
*653 ANTENNA__239__B
*654 ANTENNA__241__S
*655 ANTENNA__242__A1
*656 ANTENNA__243__A1
*657 ANTENNA__243__C
*658 ANTENNA__245__A2
*659 ANTENNA__246__A2
*660 ANTENNA__246__B1
*661 ANTENNA__247__A2
*662 ANTENNA__249__I
*663 ANTENNA__250__A2
*664 ANTENNA_input10_I
*665 ANTENNA_input11_I
*666 ANTENNA_input12_I
*667 ANTENNA_input13_I
*668 ANTENNA_input14_I
*669 ANTENNA_input15_I
*670 ANTENNA_input16_I
*671 ANTENNA_input17_I
*672 ANTENNA_input18_I
*673 ANTENNA_input19_I
*674 ANTENNA_input1_I
*675 ANTENNA_input20_I
*676 ANTENNA_input21_I
*677 ANTENNA_input2_I
*678 ANTENNA_input3_I
*679 ANTENNA_input4_I
*680 ANTENNA_input5_I
*681 ANTENNA_input6_I
*682 ANTENNA_input7_I
*683 ANTENNA_input8_I
*684 ANTENNA_input9_I
*685 ANTENNA_output22_I
*686 ANTENNA_output23_I
*687 ANTENNA_output24_I
*688 ANTENNA_output25_I
*689 ANTENNA_output26_I
*690 ANTENNA_output31_I
*691 ANTENNA_output32_I
*692 ANTENNA_output33_I
*693 ANTENNA_output34_I
*694 ANTENNA_output35_I
*695 ANTENNA_output36_I
*696 FILLER_0_1014
*697 FILLER_0_1017
*698 FILLER_0_1033
*699 FILLER_0_104
*700 FILLER_0_1041
*701 FILLER_0_107
*702 FILLER_0_112
*703 FILLER_0_118
*704 FILLER_0_130
*705 FILLER_0_138
*706 FILLER_0_142
*707 FILLER_0_147
*708 FILLER_0_149
*709 FILLER_0_154
*710 FILLER_0_158
*711 FILLER_0_163
*712 FILLER_0_167
*713 FILLER_0_172
*714 FILLER_0_174
*715 FILLER_0_177
*716 FILLER_0_182
*717 FILLER_0_190
*718 FILLER_0_194
*719 FILLER_0_199
*720 FILLER_0_2
*721 FILLER_0_203
*722 FILLER_0_208
*723 FILLER_0_212
*724 FILLER_0_217
*725 FILLER_0_221
*726 FILLER_0_226
*727 FILLER_0_230
*728 FILLER_0_235
*729 FILLER_0_239
*730 FILLER_0_244
*731 FILLER_0_247
*732 FILLER_0_253
*733 FILLER_0_257
*734 FILLER_0_262
*735 FILLER_0_266
*736 FILLER_0_271
*737 FILLER_0_279
*738 FILLER_0_282
*739 FILLER_0_284
*740 FILLER_0_289
*741 FILLER_0_293
*742 FILLER_0_298
*743 FILLER_0_302
*744 FILLER_0_307
*745 FILLER_0_309
*746 FILLER_0_314
*747 FILLER_0_317
*748 FILLER_0_325
*749 FILLER_0_329
*750 FILLER_0_334
*751 FILLER_0_338
*752 FILLER_0_34
*753 FILLER_0_343
*754 FILLER_0_349
*755 FILLER_0_352
*756 FILLER_0_356
*757 FILLER_0_361
*758 FILLER_0_365
*759 FILLER_0_37
*760 FILLER_0_370
*761 FILLER_0_378
*762 FILLER_0_384
*763 FILLER_0_387
*764 FILLER_0_391
*765 FILLER_0_397
*766 FILLER_0_403
*767 FILLER_0_407
*768 FILLER_0_412
*769 FILLER_0_414
*770 FILLER_0_419
*771 FILLER_0_422
*772 FILLER_0_430
*773 FILLER_0_434
*774 FILLER_0_439
*775 FILLER_0_443
*776 FILLER_0_448
*777 FILLER_0_454
*778 FILLER_0_457
*779 FILLER_0_461
*780 FILLER_0_466
*781 FILLER_0_470
*782 FILLER_0_475
*783 FILLER_0_483
*784 FILLER_0_489
*785 FILLER_0_492
*786 FILLER_0_496
*787 FILLER_0_502
*788 FILLER_0_506
*789 FILLER_0_511
*790 FILLER_0_515
*791 FILLER_0_520
*792 FILLER_0_524
*793 FILLER_0_527
*794 FILLER_0_532
*795 FILLER_0_538
*796 FILLER_0_542
*797 FILLER_0_547
*798 FILLER_0_551
*799 FILLER_0_556
*800 FILLER_0_562
*801 FILLER_0_567
*802 FILLER_0_569
*803 FILLER_0_574
*804 FILLER_0_578
*805 FILLER_0_583
*806 FILLER_0_587
*807 FILLER_0_592
*808 FILLER_0_594
*809 FILLER_0_597
*810 FILLER_0_602
*811 FILLER_0_610
*812 FILLER_0_614
*813 FILLER_0_619
*814 FILLER_0_623
*815 FILLER_0_628
*816 FILLER_0_632
*817 FILLER_0_637
*818 FILLER_0_641
*819 FILLER_0_646
*820 FILLER_0_650
*821 FILLER_0_655
*822 FILLER_0_659
*823 FILLER_0_664
*824 FILLER_0_667
*825 FILLER_0_673
*826 FILLER_0_677
*827 FILLER_0_682
*828 FILLER_0_686
*829 FILLER_0_69
*830 FILLER_0_691
*831 FILLER_0_699
*832 FILLER_0_702
*833 FILLER_0_707
*834 FILLER_0_713
*835 FILLER_0_719
*836 FILLER_0_72
*837 FILLER_0_727
*838 FILLER_0_737
*839 FILLER_0_742
*840 FILLER_0_748
*841 FILLER_0_754
*842 FILLER_0_758
*843 FILLER_0_763
*844 FILLER_0_767
*845 FILLER_0_769
*846 FILLER_0_772
*847 FILLER_0_777
*848 FILLER_0_783
*849 FILLER_0_785
*850 FILLER_0_790
*851 FILLER_0_794
*852 FILLER_0_799
*853 FILLER_0_80
*854 FILLER_0_803
*855 FILLER_0_807
*856 FILLER_0_812
*857 FILLER_0_818
*858 FILLER_0_826
*859 FILLER_0_830
*860 FILLER_0_835
*861 FILLER_0_839
*862 FILLER_0_842
*863 FILLER_0_847
*864 FILLER_0_853
*865 FILLER_0_857
*866 FILLER_0_862
*867 FILLER_0_866
*868 FILLER_0_871
*869 FILLER_0_877
*870 FILLER_0_88
*871 FILLER_0_882
*872 FILLER_0_884
*873 FILLER_0_889
*874 FILLER_0_893
*875 FILLER_0_898
*876 FILLER_0_902
*877 FILLER_0_907
*878 FILLER_0_909
*879 FILLER_0_912
*880 FILLER_0_917
*881 FILLER_0_925
*882 FILLER_0_929
*883 FILLER_0_934
*884 FILLER_0_938
*885 FILLER_0_943
*886 FILLER_0_947
*887 FILLER_0_952
*888 FILLER_0_956
*889 FILLER_0_961
*890 FILLER_0_965
*891 FILLER_0_970
*892 FILLER_0_978
*893 FILLER_0_982
*894 FILLER_100_101
*895 FILLER_100_1024
*896 FILLER_100_1028
*897 FILLER_100_1031
*898 FILLER_100_1039
*899 FILLER_100_1043
*900 FILLER_100_105
*901 FILLER_100_108
*902 FILLER_100_172
*903 FILLER_100_176
*904 FILLER_100_179
*905 FILLER_100_2
*906 FILLER_100_243
*907 FILLER_100_247
*908 FILLER_100_250
*909 FILLER_100_314
*910 FILLER_100_318
*911 FILLER_100_321
*912 FILLER_100_34
*913 FILLER_100_37
*914 FILLER_100_385
*915 FILLER_100_389
*916 FILLER_100_392
*917 FILLER_100_456
*918 FILLER_100_460
*919 FILLER_100_463
*920 FILLER_100_527
*921 FILLER_100_531
*922 FILLER_100_534
*923 FILLER_100_598
*924 FILLER_100_602
*925 FILLER_100_605
*926 FILLER_100_669
*927 FILLER_100_673
*928 FILLER_100_676
*929 FILLER_100_740
*930 FILLER_100_744
*931 FILLER_100_747
*932 FILLER_100_811
*933 FILLER_100_815
*934 FILLER_100_818
*935 FILLER_100_882
*936 FILLER_100_886
*937 FILLER_100_889
*938 FILLER_100_953
*939 FILLER_100_957
*940 FILLER_100_960
*941 FILLER_101_1028
*942 FILLER_101_1044
*943 FILLER_101_137
*944 FILLER_101_141
*945 FILLER_101_144
*946 FILLER_101_2
*947 FILLER_101_208
*948 FILLER_101_212
*949 FILLER_101_215
*950 FILLER_101_279
*951 FILLER_101_283
*952 FILLER_101_286
*953 FILLER_101_350
*954 FILLER_101_354
*955 FILLER_101_357
*956 FILLER_101_421
*957 FILLER_101_425
*958 FILLER_101_428
*959 FILLER_101_492
*960 FILLER_101_496
*961 FILLER_101_499
*962 FILLER_101_563
*963 FILLER_101_567
*964 FILLER_101_570
*965 FILLER_101_634
*966 FILLER_101_638
*967 FILLER_101_641
*968 FILLER_101_66
*969 FILLER_101_70
*970 FILLER_101_705
*971 FILLER_101_709
*972 FILLER_101_712
*973 FILLER_101_73
*974 FILLER_101_776
*975 FILLER_101_780
*976 FILLER_101_783
*977 FILLER_101_847
*978 FILLER_101_851
*979 FILLER_101_854
*980 FILLER_101_918
*981 FILLER_101_922
*982 FILLER_101_925
*983 FILLER_101_989
*984 FILLER_101_993
*985 FILLER_101_996
*986 FILLER_102_101
*987 FILLER_102_1024
*988 FILLER_102_1028
*989 FILLER_102_1031
*990 FILLER_102_1039
*991 FILLER_102_1043
*992 FILLER_102_105
*993 FILLER_102_108
*994 FILLER_102_172
*995 FILLER_102_176
*996 FILLER_102_179
*997 FILLER_102_2
*998 FILLER_102_243
*999 FILLER_102_247
*1000 FILLER_102_250
*1001 FILLER_102_314
*1002 FILLER_102_318
*1003 FILLER_102_321
*1004 FILLER_102_34
*1005 FILLER_102_37
*1006 FILLER_102_385
*1007 FILLER_102_389
*1008 FILLER_102_392
*1009 FILLER_102_456
*1010 FILLER_102_460
*1011 FILLER_102_463
*1012 FILLER_102_527
*1013 FILLER_102_531
*1014 FILLER_102_534
*1015 FILLER_102_598
*1016 FILLER_102_602
*1017 FILLER_102_605
*1018 FILLER_102_669
*1019 FILLER_102_673
*1020 FILLER_102_676
*1021 FILLER_102_740
*1022 FILLER_102_744
*1023 FILLER_102_747
*1024 FILLER_102_811
*1025 FILLER_102_815
*1026 FILLER_102_818
*1027 FILLER_102_882
*1028 FILLER_102_886
*1029 FILLER_102_889
*1030 FILLER_102_953
*1031 FILLER_102_957
*1032 FILLER_102_960
*1033 FILLER_103_1028
*1034 FILLER_103_1044
*1035 FILLER_103_137
*1036 FILLER_103_141
*1037 FILLER_103_144
*1038 FILLER_103_2
*1039 FILLER_103_208
*1040 FILLER_103_212
*1041 FILLER_103_215
*1042 FILLER_103_279
*1043 FILLER_103_283
*1044 FILLER_103_286
*1045 FILLER_103_350
*1046 FILLER_103_354
*1047 FILLER_103_357
*1048 FILLER_103_421
*1049 FILLER_103_425
*1050 FILLER_103_428
*1051 FILLER_103_492
*1052 FILLER_103_496
*1053 FILLER_103_499
*1054 FILLER_103_563
*1055 FILLER_103_567
*1056 FILLER_103_570
*1057 FILLER_103_634
*1058 FILLER_103_638
*1059 FILLER_103_641
*1060 FILLER_103_66
*1061 FILLER_103_70
*1062 FILLER_103_705
*1063 FILLER_103_709
*1064 FILLER_103_712
*1065 FILLER_103_73
*1066 FILLER_103_776
*1067 FILLER_103_780
*1068 FILLER_103_783
*1069 FILLER_103_847
*1070 FILLER_103_851
*1071 FILLER_103_854
*1072 FILLER_103_918
*1073 FILLER_103_922
*1074 FILLER_103_925
*1075 FILLER_103_989
*1076 FILLER_103_993
*1077 FILLER_103_996
*1078 FILLER_104_101
*1079 FILLER_104_1024
*1080 FILLER_104_1028
*1081 FILLER_104_1031
*1082 FILLER_104_1039
*1083 FILLER_104_1043
*1084 FILLER_104_105
*1085 FILLER_104_108
*1086 FILLER_104_172
*1087 FILLER_104_176
*1088 FILLER_104_179
*1089 FILLER_104_2
*1090 FILLER_104_243
*1091 FILLER_104_247
*1092 FILLER_104_250
*1093 FILLER_104_314
*1094 FILLER_104_318
*1095 FILLER_104_321
*1096 FILLER_104_34
*1097 FILLER_104_37
*1098 FILLER_104_385
*1099 FILLER_104_389
*1100 FILLER_104_392
*1101 FILLER_104_456
*1102 FILLER_104_460
*1103 FILLER_104_463
*1104 FILLER_104_527
*1105 FILLER_104_531
*1106 FILLER_104_534
*1107 FILLER_104_598
*1108 FILLER_104_602
*1109 FILLER_104_605
*1110 FILLER_104_669
*1111 FILLER_104_673
*1112 FILLER_104_676
*1113 FILLER_104_740
*1114 FILLER_104_744
*1115 FILLER_104_747
*1116 FILLER_104_811
*1117 FILLER_104_815
*1118 FILLER_104_818
*1119 FILLER_104_882
*1120 FILLER_104_886
*1121 FILLER_104_889
*1122 FILLER_104_953
*1123 FILLER_104_957
*1124 FILLER_104_960
*1125 FILLER_105_1028
*1126 FILLER_105_1044
*1127 FILLER_105_137
*1128 FILLER_105_141
*1129 FILLER_105_144
*1130 FILLER_105_2
*1131 FILLER_105_208
*1132 FILLER_105_212
*1133 FILLER_105_215
*1134 FILLER_105_279
*1135 FILLER_105_283
*1136 FILLER_105_286
*1137 FILLER_105_350
*1138 FILLER_105_354
*1139 FILLER_105_357
*1140 FILLER_105_421
*1141 FILLER_105_425
*1142 FILLER_105_428
*1143 FILLER_105_492
*1144 FILLER_105_496
*1145 FILLER_105_499
*1146 FILLER_105_563
*1147 FILLER_105_567
*1148 FILLER_105_570
*1149 FILLER_105_634
*1150 FILLER_105_638
*1151 FILLER_105_641
*1152 FILLER_105_66
*1153 FILLER_105_70
*1154 FILLER_105_705
*1155 FILLER_105_709
*1156 FILLER_105_712
*1157 FILLER_105_73
*1158 FILLER_105_776
*1159 FILLER_105_780
*1160 FILLER_105_783
*1161 FILLER_105_847
*1162 FILLER_105_851
*1163 FILLER_105_854
*1164 FILLER_105_918
*1165 FILLER_105_922
*1166 FILLER_105_925
*1167 FILLER_105_989
*1168 FILLER_105_993
*1169 FILLER_105_996
*1170 FILLER_106_101
*1171 FILLER_106_1024
*1172 FILLER_106_1028
*1173 FILLER_106_1031
*1174 FILLER_106_1039
*1175 FILLER_106_1043
*1176 FILLER_106_105
*1177 FILLER_106_108
*1178 FILLER_106_172
*1179 FILLER_106_176
*1180 FILLER_106_179
*1181 FILLER_106_2
*1182 FILLER_106_243
*1183 FILLER_106_247
*1184 FILLER_106_250
*1185 FILLER_106_314
*1186 FILLER_106_318
*1187 FILLER_106_321
*1188 FILLER_106_34
*1189 FILLER_106_37
*1190 FILLER_106_385
*1191 FILLER_106_389
*1192 FILLER_106_392
*1193 FILLER_106_456
*1194 FILLER_106_460
*1195 FILLER_106_463
*1196 FILLER_106_527
*1197 FILLER_106_531
*1198 FILLER_106_534
*1199 FILLER_106_598
*1200 FILLER_106_602
*1201 FILLER_106_605
*1202 FILLER_106_669
*1203 FILLER_106_673
*1204 FILLER_106_676
*1205 FILLER_106_740
*1206 FILLER_106_744
*1207 FILLER_106_747
*1208 FILLER_106_811
*1209 FILLER_106_815
*1210 FILLER_106_818
*1211 FILLER_106_882
*1212 FILLER_106_886
*1213 FILLER_106_889
*1214 FILLER_106_953
*1215 FILLER_106_957
*1216 FILLER_106_960
*1217 FILLER_107_1028
*1218 FILLER_107_1044
*1219 FILLER_107_137
*1220 FILLER_107_141
*1221 FILLER_107_144
*1222 FILLER_107_2
*1223 FILLER_107_208
*1224 FILLER_107_212
*1225 FILLER_107_215
*1226 FILLER_107_279
*1227 FILLER_107_283
*1228 FILLER_107_286
*1229 FILLER_107_350
*1230 FILLER_107_354
*1231 FILLER_107_357
*1232 FILLER_107_421
*1233 FILLER_107_425
*1234 FILLER_107_428
*1235 FILLER_107_492
*1236 FILLER_107_496
*1237 FILLER_107_499
*1238 FILLER_107_563
*1239 FILLER_107_567
*1240 FILLER_107_570
*1241 FILLER_107_634
*1242 FILLER_107_638
*1243 FILLER_107_641
*1244 FILLER_107_66
*1245 FILLER_107_70
*1246 FILLER_107_705
*1247 FILLER_107_709
*1248 FILLER_107_712
*1249 FILLER_107_73
*1250 FILLER_107_776
*1251 FILLER_107_780
*1252 FILLER_107_783
*1253 FILLER_107_847
*1254 FILLER_107_851
*1255 FILLER_107_854
*1256 FILLER_107_918
*1257 FILLER_107_922
*1258 FILLER_107_925
*1259 FILLER_107_989
*1260 FILLER_107_993
*1261 FILLER_107_996
*1262 FILLER_108_101
*1263 FILLER_108_1024
*1264 FILLER_108_1028
*1265 FILLER_108_1031
*1266 FILLER_108_1039
*1267 FILLER_108_1043
*1268 FILLER_108_105
*1269 FILLER_108_108
*1270 FILLER_108_172
*1271 FILLER_108_176
*1272 FILLER_108_179
*1273 FILLER_108_2
*1274 FILLER_108_243
*1275 FILLER_108_247
*1276 FILLER_108_250
*1277 FILLER_108_314
*1278 FILLER_108_318
*1279 FILLER_108_321
*1280 FILLER_108_34
*1281 FILLER_108_37
*1282 FILLER_108_385
*1283 FILLER_108_389
*1284 FILLER_108_392
*1285 FILLER_108_456
*1286 FILLER_108_460
*1287 FILLER_108_463
*1288 FILLER_108_527
*1289 FILLER_108_531
*1290 FILLER_108_534
*1291 FILLER_108_598
*1292 FILLER_108_602
*1293 FILLER_108_605
*1294 FILLER_108_669
*1295 FILLER_108_673
*1296 FILLER_108_676
*1297 FILLER_108_740
*1298 FILLER_108_744
*1299 FILLER_108_747
*1300 FILLER_108_811
*1301 FILLER_108_815
*1302 FILLER_108_818
*1303 FILLER_108_882
*1304 FILLER_108_886
*1305 FILLER_108_889
*1306 FILLER_108_953
*1307 FILLER_108_957
*1308 FILLER_108_960
*1309 FILLER_109_1028
*1310 FILLER_109_1044
*1311 FILLER_109_137
*1312 FILLER_109_141
*1313 FILLER_109_144
*1314 FILLER_109_2
*1315 FILLER_109_208
*1316 FILLER_109_212
*1317 FILLER_109_215
*1318 FILLER_109_279
*1319 FILLER_109_283
*1320 FILLER_109_286
*1321 FILLER_109_350
*1322 FILLER_109_354
*1323 FILLER_109_357
*1324 FILLER_109_421
*1325 FILLER_109_425
*1326 FILLER_109_428
*1327 FILLER_109_492
*1328 FILLER_109_496
*1329 FILLER_109_499
*1330 FILLER_109_563
*1331 FILLER_109_567
*1332 FILLER_109_570
*1333 FILLER_109_634
*1334 FILLER_109_638
*1335 FILLER_109_641
*1336 FILLER_109_66
*1337 FILLER_109_70
*1338 FILLER_109_705
*1339 FILLER_109_709
*1340 FILLER_109_712
*1341 FILLER_109_73
*1342 FILLER_109_776
*1343 FILLER_109_780
*1344 FILLER_109_783
*1345 FILLER_109_847
*1346 FILLER_109_851
*1347 FILLER_109_854
*1348 FILLER_109_918
*1349 FILLER_109_922
*1350 FILLER_109_925
*1351 FILLER_109_989
*1352 FILLER_109_993
*1353 FILLER_109_996
*1354 FILLER_10_101
*1355 FILLER_10_1024
*1356 FILLER_10_1028
*1357 FILLER_10_1031
*1358 FILLER_10_1039
*1359 FILLER_10_1043
*1360 FILLER_10_105
*1361 FILLER_10_108
*1362 FILLER_10_172
*1363 FILLER_10_176
*1364 FILLER_10_179
*1365 FILLER_10_2
*1366 FILLER_10_243
*1367 FILLER_10_247
*1368 FILLER_10_250
*1369 FILLER_10_314
*1370 FILLER_10_318
*1371 FILLER_10_321
*1372 FILLER_10_34
*1373 FILLER_10_37
*1374 FILLER_10_385
*1375 FILLER_10_389
*1376 FILLER_10_392
*1377 FILLER_10_456
*1378 FILLER_10_460
*1379 FILLER_10_463
*1380 FILLER_10_527
*1381 FILLER_10_531
*1382 FILLER_10_534
*1383 FILLER_10_598
*1384 FILLER_10_602
*1385 FILLER_10_605
*1386 FILLER_10_669
*1387 FILLER_10_673
*1388 FILLER_10_676
*1389 FILLER_10_740
*1390 FILLER_10_744
*1391 FILLER_10_747
*1392 FILLER_10_811
*1393 FILLER_10_815
*1394 FILLER_10_818
*1395 FILLER_10_882
*1396 FILLER_10_886
*1397 FILLER_10_889
*1398 FILLER_10_953
*1399 FILLER_10_957
*1400 FILLER_10_960
*1401 FILLER_110_101
*1402 FILLER_110_1024
*1403 FILLER_110_1028
*1404 FILLER_110_1031
*1405 FILLER_110_1039
*1406 FILLER_110_1043
*1407 FILLER_110_105
*1408 FILLER_110_108
*1409 FILLER_110_172
*1410 FILLER_110_176
*1411 FILLER_110_179
*1412 FILLER_110_2
*1413 FILLER_110_243
*1414 FILLER_110_247
*1415 FILLER_110_250
*1416 FILLER_110_314
*1417 FILLER_110_318
*1418 FILLER_110_321
*1419 FILLER_110_34
*1420 FILLER_110_37
*1421 FILLER_110_385
*1422 FILLER_110_389
*1423 FILLER_110_392
*1424 FILLER_110_456
*1425 FILLER_110_460
*1426 FILLER_110_463
*1427 FILLER_110_527
*1428 FILLER_110_531
*1429 FILLER_110_534
*1430 FILLER_110_598
*1431 FILLER_110_602
*1432 FILLER_110_605
*1433 FILLER_110_669
*1434 FILLER_110_673
*1435 FILLER_110_676
*1436 FILLER_110_740
*1437 FILLER_110_744
*1438 FILLER_110_747
*1439 FILLER_110_811
*1440 FILLER_110_815
*1441 FILLER_110_818
*1442 FILLER_110_882
*1443 FILLER_110_886
*1444 FILLER_110_889
*1445 FILLER_110_953
*1446 FILLER_110_957
*1447 FILLER_110_960
*1448 FILLER_111_1028
*1449 FILLER_111_1044
*1450 FILLER_111_137
*1451 FILLER_111_141
*1452 FILLER_111_144
*1453 FILLER_111_2
*1454 FILLER_111_208
*1455 FILLER_111_212
*1456 FILLER_111_215
*1457 FILLER_111_279
*1458 FILLER_111_283
*1459 FILLER_111_286
*1460 FILLER_111_350
*1461 FILLER_111_354
*1462 FILLER_111_357
*1463 FILLER_111_421
*1464 FILLER_111_425
*1465 FILLER_111_428
*1466 FILLER_111_492
*1467 FILLER_111_496
*1468 FILLER_111_499
*1469 FILLER_111_563
*1470 FILLER_111_567
*1471 FILLER_111_570
*1472 FILLER_111_634
*1473 FILLER_111_638
*1474 FILLER_111_641
*1475 FILLER_111_66
*1476 FILLER_111_70
*1477 FILLER_111_705
*1478 FILLER_111_709
*1479 FILLER_111_712
*1480 FILLER_111_73
*1481 FILLER_111_776
*1482 FILLER_111_780
*1483 FILLER_111_783
*1484 FILLER_111_847
*1485 FILLER_111_851
*1486 FILLER_111_854
*1487 FILLER_111_918
*1488 FILLER_111_922
*1489 FILLER_111_925
*1490 FILLER_111_989
*1491 FILLER_111_993
*1492 FILLER_111_996
*1493 FILLER_112_101
*1494 FILLER_112_1024
*1495 FILLER_112_1028
*1496 FILLER_112_1031
*1497 FILLER_112_1039
*1498 FILLER_112_1043
*1499 FILLER_112_105
*1500 FILLER_112_108
*1501 FILLER_112_172
*1502 FILLER_112_176
*1503 FILLER_112_179
*1504 FILLER_112_2
*1505 FILLER_112_243
*1506 FILLER_112_247
*1507 FILLER_112_250
*1508 FILLER_112_314
*1509 FILLER_112_318
*1510 FILLER_112_321
*1511 FILLER_112_34
*1512 FILLER_112_37
*1513 FILLER_112_385
*1514 FILLER_112_389
*1515 FILLER_112_392
*1516 FILLER_112_456
*1517 FILLER_112_460
*1518 FILLER_112_463
*1519 FILLER_112_527
*1520 FILLER_112_531
*1521 FILLER_112_534
*1522 FILLER_112_598
*1523 FILLER_112_602
*1524 FILLER_112_605
*1525 FILLER_112_669
*1526 FILLER_112_673
*1527 FILLER_112_676
*1528 FILLER_112_740
*1529 FILLER_112_744
*1530 FILLER_112_747
*1531 FILLER_112_811
*1532 FILLER_112_815
*1533 FILLER_112_818
*1534 FILLER_112_882
*1535 FILLER_112_886
*1536 FILLER_112_889
*1537 FILLER_112_953
*1538 FILLER_112_957
*1539 FILLER_112_960
*1540 FILLER_113_1028
*1541 FILLER_113_1044
*1542 FILLER_113_137
*1543 FILLER_113_141
*1544 FILLER_113_144
*1545 FILLER_113_2
*1546 FILLER_113_208
*1547 FILLER_113_212
*1548 FILLER_113_215
*1549 FILLER_113_279
*1550 FILLER_113_283
*1551 FILLER_113_286
*1552 FILLER_113_350
*1553 FILLER_113_354
*1554 FILLER_113_357
*1555 FILLER_113_421
*1556 FILLER_113_425
*1557 FILLER_113_428
*1558 FILLER_113_492
*1559 FILLER_113_496
*1560 FILLER_113_499
*1561 FILLER_113_563
*1562 FILLER_113_567
*1563 FILLER_113_570
*1564 FILLER_113_634
*1565 FILLER_113_638
*1566 FILLER_113_641
*1567 FILLER_113_66
*1568 FILLER_113_70
*1569 FILLER_113_705
*1570 FILLER_113_709
*1571 FILLER_113_712
*1572 FILLER_113_73
*1573 FILLER_113_776
*1574 FILLER_113_780
*1575 FILLER_113_783
*1576 FILLER_113_847
*1577 FILLER_113_851
*1578 FILLER_113_854
*1579 FILLER_113_918
*1580 FILLER_113_922
*1581 FILLER_113_925
*1582 FILLER_113_989
*1583 FILLER_113_993
*1584 FILLER_113_996
*1585 FILLER_114_101
*1586 FILLER_114_1024
*1587 FILLER_114_1028
*1588 FILLER_114_1031
*1589 FILLER_114_1039
*1590 FILLER_114_1043
*1591 FILLER_114_105
*1592 FILLER_114_108
*1593 FILLER_114_172
*1594 FILLER_114_176
*1595 FILLER_114_179
*1596 FILLER_114_2
*1597 FILLER_114_243
*1598 FILLER_114_247
*1599 FILLER_114_250
*1600 FILLER_114_314
*1601 FILLER_114_318
*1602 FILLER_114_321
*1603 FILLER_114_34
*1604 FILLER_114_37
*1605 FILLER_114_385
*1606 FILLER_114_389
*1607 FILLER_114_392
*1608 FILLER_114_456
*1609 FILLER_114_460
*1610 FILLER_114_463
*1611 FILLER_114_527
*1612 FILLER_114_531
*1613 FILLER_114_534
*1614 FILLER_114_598
*1615 FILLER_114_602
*1616 FILLER_114_605
*1617 FILLER_114_669
*1618 FILLER_114_673
*1619 FILLER_114_676
*1620 FILLER_114_740
*1621 FILLER_114_744
*1622 FILLER_114_747
*1623 FILLER_114_811
*1624 FILLER_114_815
*1625 FILLER_114_818
*1626 FILLER_114_882
*1627 FILLER_114_886
*1628 FILLER_114_889
*1629 FILLER_114_953
*1630 FILLER_114_957
*1631 FILLER_114_960
*1632 FILLER_115_1028
*1633 FILLER_115_1044
*1634 FILLER_115_137
*1635 FILLER_115_141
*1636 FILLER_115_144
*1637 FILLER_115_2