*SPEF "ieee 1481-1999"
*DESIGN "user_project_wrapper"
*DATE "11:11:11 Fri 11 11, 1111"
*VENDOR "OpenRCX"
*PROGRAM "Parallel Extraction"
*VERSION "1.0"
*DESIGN_FLOW "NAME_SCOPE LOCAL" "PIN_CAP NONE"
*DIVIDER /
*DELIMITER :
*BUS_DELIMITER []
*T_UNIT 1 NS
*C_UNIT 1 PF
*R_UNIT 1 OHM
*L_UNIT 1 HENRY

*NAME_MAP
*1 analog_io[0]
*2 analog_io[10]
*3 analog_io[11]
*4 analog_io[12]
*5 analog_io[13]
*6 analog_io[14]
*7 analog_io[15]
*8 analog_io[16]
*9 analog_io[17]
*10 analog_io[18]
*11 analog_io[19]
*12 analog_io[1]
*13 analog_io[20]
*14 analog_io[21]
*15 analog_io[22]
*16 analog_io[23]
*17 analog_io[24]
*18 analog_io[25]
*19 analog_io[26]
*20 analog_io[27]
*21 analog_io[28]
*22 analog_io[2]
*23 analog_io[3]
*24 analog_io[4]
*25 analog_io[5]
*26 analog_io[6]
*27 analog_io[7]
*28 analog_io[8]
*29 analog_io[9]
*30 io_in[0]
*31 io_in[10]
*32 io_in[11]
*33 io_in[12]
*34 io_in[13]
*35 io_in[14]
*36 io_in[15]
*37 io_in[16]
*38 io_in[17]
*39 io_in[18]
*40 io_in[19]
*41 io_in[1]
*42 io_in[20]
*43 io_in[21]
*44 io_in[22]
*45 io_in[23]
*46 io_in[24]
*47 io_in[25]
*48 io_in[26]
*49 io_in[27]
*50 io_in[28]
*51 io_in[29]
*52 io_in[2]
*53 io_in[30]
*54 io_in[31]
*55 io_in[32]
*56 io_in[33]
*57 io_in[34]
*58 io_in[35]
*59 io_in[36]
*60 io_in[37]
*61 io_in[3]
*62 io_in[4]
*63 io_in[5]
*64 io_in[6]
*65 io_in[7]
*66 io_in[8]
*67 io_in[9]
*68 io_oeb[0]
*69 io_oeb[10]
*70 io_oeb[11]
*71 io_oeb[12]
*72 io_oeb[13]
*73 io_oeb[14]
*74 io_oeb[15]
*75 io_oeb[16]
*76 io_oeb[17]
*77 io_oeb[18]
*78 io_oeb[19]
*79 io_oeb[1]
*80 io_oeb[20]
*81 io_oeb[21]
*82 io_oeb[22]
*83 io_oeb[23]
*84 io_oeb[24]
*85 io_oeb[25]
*86 io_oeb[26]
*87 io_oeb[27]
*88 io_oeb[28]
*89 io_oeb[29]
*90 io_oeb[2]
*91 io_oeb[30]
*92 io_oeb[31]
*93 io_oeb[32]
*94 io_oeb[33]
*95 io_oeb[34]
*96 io_oeb[35]
*97 io_oeb[36]
*98 io_oeb[37]
*99 io_oeb[3]
*100 io_oeb[4]
*101 io_oeb[5]
*102 io_oeb[6]
*103 io_oeb[7]
*104 io_oeb[8]
*105 io_oeb[9]
*106 io_out[0]
*107 io_out[10]
*108 io_out[11]
*109 io_out[12]
*110 io_out[13]
*111 io_out[14]
*112 io_out[15]
*113 io_out[16]
*114 io_out[17]
*115 io_out[18]
*116 io_out[19]
*117 io_out[1]
*118 io_out[20]
*119 io_out[21]
*120 io_out[22]
*121 io_out[23]
*122 io_out[24]
*123 io_out[25]
*124 io_out[26]
*125 io_out[27]
*126 io_out[28]
*127 io_out[29]
*128 io_out[2]
*129 io_out[30]
*130 io_out[31]
*131 io_out[32]
*132 io_out[33]
*133 io_out[34]
*134 io_out[35]
*135 io_out[36]
*136 io_out[37]
*137 io_out[3]
*138 io_out[4]
*139 io_out[5]
*140 io_out[6]
*141 io_out[7]
*142 io_out[8]
*143 io_out[9]
*144 la_data_in[0]
*145 la_data_in[10]
*146 la_data_in[11]
*147 la_data_in[12]
*148 la_data_in[13]
*149 la_data_in[14]
*150 la_data_in[15]
*151 la_data_in[16]
*152 la_data_in[17]
*153 la_data_in[18]
*154 la_data_in[19]
*155 la_data_in[1]
*156 la_data_in[20]
*157 la_data_in[21]
*158 la_data_in[22]
*159 la_data_in[23]
*160 la_data_in[24]
*161 la_data_in[25]
*162 la_data_in[26]
*163 la_data_in[27]
*164 la_data_in[28]
*165 la_data_in[29]
*166 la_data_in[2]
*167 la_data_in[30]
*168 la_data_in[31]
*169 la_data_in[32]
*170 la_data_in[33]
*171 la_data_in[34]
*172 la_data_in[35]
*173 la_data_in[36]
*174 la_data_in[37]
*175 la_data_in[38]
*176 la_data_in[39]
*177 la_data_in[3]
*178 la_data_in[40]
*179 la_data_in[41]
*180 la_data_in[42]
*181 la_data_in[43]
*182 la_data_in[44]
*183 la_data_in[45]
*184 la_data_in[46]
*185 la_data_in[47]
*186 la_data_in[48]
*187 la_data_in[49]
*188 la_data_in[4]
*189 la_data_in[50]
*190 la_data_in[51]
*191 la_data_in[52]
*192 la_data_in[53]
*193 la_data_in[54]
*194 la_data_in[55]
*195 la_data_in[56]
*196 la_data_in[57]
*197 la_data_in[58]
*198 la_data_in[59]
*199 la_data_in[5]
*200 la_data_in[60]
*201 la_data_in[61]
*202 la_data_in[62]
*203 la_data_in[63]
*204 la_data_in[6]
*205 la_data_in[7]
*206 la_data_in[8]
*207 la_data_in[9]
*208 la_data_out[0]
*209 la_data_out[10]
*210 la_data_out[11]
*211 la_data_out[12]
*212 la_data_out[13]
*213 la_data_out[14]
*214 la_data_out[15]
*215 la_data_out[16]
*216 la_data_out[17]
*217 la_data_out[18]
*218 la_data_out[19]
*219 la_data_out[1]
*220 la_data_out[20]
*221 la_data_out[21]
*222 la_data_out[22]
*223 la_data_out[23]
*224 la_data_out[24]
*225 la_data_out[25]
*226 la_data_out[26]
*227 la_data_out[27]
*228 la_data_out[28]
*229 la_data_out[29]
*230 la_data_out[2]
*231 la_data_out[30]
*232 la_data_out[31]
*233 la_data_out[32]
*234 la_data_out[33]
*235 la_data_out[34]
*236 la_data_out[35]
*237 la_data_out[36]
*238 la_data_out[37]
*239 la_data_out[38]
*240 la_data_out[39]
*241 la_data_out[3]
*242 la_data_out[40]
*243 la_data_out[41]
*244 la_data_out[42]
*245 la_data_out[43]
*246 la_data_out[44]
*247 la_data_out[45]
*248 la_data_out[46]
*249 la_data_out[47]
*250 la_data_out[48]
*251 la_data_out[49]
*252 la_data_out[4]
*253 la_data_out[50]
*254 la_data_out[51]
*255 la_data_out[52]
*256 la_data_out[53]
*257 la_data_out[54]
*258 la_data_out[55]
*259 la_data_out[56]
*260 la_data_out[57]
*261 la_data_out[58]
*262 la_data_out[59]
*263 la_data_out[5]
*264 la_data_out[60]
*265 la_data_out[61]
*266 la_data_out[62]
*267 la_data_out[63]
*268 la_data_out[6]
*269 la_data_out[7]
*270 la_data_out[8]
*271 la_data_out[9]
*272 la_oenb[0]
*273 la_oenb[10]
*274 la_oenb[11]
*275 la_oenb[12]
*276 la_oenb[13]
*277 la_oenb[14]
*278 la_oenb[15]
*279 la_oenb[16]
*280 la_oenb[17]
*281 la_oenb[18]
*282 la_oenb[19]
*283 la_oenb[1]
*284 la_oenb[20]
*285 la_oenb[21]
*286 la_oenb[22]
*287 la_oenb[23]
*288 la_oenb[24]
*289 la_oenb[25]
*290 la_oenb[26]
*291 la_oenb[27]
*292 la_oenb[28]
*293 la_oenb[29]
*294 la_oenb[2]
*295 la_oenb[30]
*296 la_oenb[31]
*297 la_oenb[32]
*298 la_oenb[33]
*299 la_oenb[34]
*300 la_oenb[35]
*301 la_oenb[36]
*302 la_oenb[37]
*303 la_oenb[38]
*304 la_oenb[39]
*305 la_oenb[3]
*306 la_oenb[40]
*307 la_oenb[41]
*308 la_oenb[42]
*309 la_oenb[43]
*310 la_oenb[44]
*311 la_oenb[45]
*312 la_oenb[46]
*313 la_oenb[47]
*314 la_oenb[48]
*315 la_oenb[49]
*316 la_oenb[4]
*317 la_oenb[50]
*318 la_oenb[51]
*319 la_oenb[52]
*320 la_oenb[53]
*321 la_oenb[54]
*322 la_oenb[55]
*323 la_oenb[56]
*324 la_oenb[57]
*325 la_oenb[58]
*326 la_oenb[59]
*327 la_oenb[5]
*328 la_oenb[60]
*329 la_oenb[61]
*330 la_oenb[62]
*331 la_oenb[63]
*332 la_oenb[6]
*333 la_oenb[7]
*334 la_oenb[8]
*335 la_oenb[9]
*336 user_clock2
*337 user_irq[0]
*338 user_irq[1]
*339 user_irq[2]
*342 wb_clk_i
*343 wb_rst_i
*344 wbs_ack_o
*345 wbs_adr_i[0]
*346 wbs_adr_i[10]
*347 wbs_adr_i[11]
*348 wbs_adr_i[12]
*349 wbs_adr_i[13]
*350 wbs_adr_i[14]
*351 wbs_adr_i[15]
*352 wbs_adr_i[16]
*353 wbs_adr_i[17]
*354 wbs_adr_i[18]
*355 wbs_adr_i[19]
*356 wbs_adr_i[1]
*357 wbs_adr_i[20]
*358 wbs_adr_i[21]
*359 wbs_adr_i[22]
*360 wbs_adr_i[23]
*361 wbs_adr_i[24]
*362 wbs_adr_i[25]
*363 wbs_adr_i[26]
*364 wbs_adr_i[27]
*365 wbs_adr_i[28]
*366 wbs_adr_i[29]
*367 wbs_adr_i[2]
*368 wbs_adr_i[30]
*369 wbs_adr_i[31]
*370 wbs_adr_i[3]
*371 wbs_adr_i[4]
*372 wbs_adr_i[5]
*373 wbs_adr_i[6]
*374 wbs_adr_i[7]
*375 wbs_adr_i[8]
*376 wbs_adr_i[9]
*377 wbs_cyc_i
*378 wbs_dat_i[0]
*379 wbs_dat_i[10]
*380 wbs_dat_i[11]
*381 wbs_dat_i[12]
*382 wbs_dat_i[13]
*383 wbs_dat_i[14]
*384 wbs_dat_i[15]
*385 wbs_dat_i[16]
*386 wbs_dat_i[17]
*387 wbs_dat_i[18]
*388 wbs_dat_i[19]
*389 wbs_dat_i[1]
*390 wbs_dat_i[20]
*391 wbs_dat_i[21]
*392 wbs_dat_i[22]
*393 wbs_dat_i[23]
*394 wbs_dat_i[24]
*395 wbs_dat_i[25]
*396 wbs_dat_i[26]
*397 wbs_dat_i[27]
*398 wbs_dat_i[28]
*399 wbs_dat_i[29]
*400 wbs_dat_i[2]
*401 wbs_dat_i[30]
*402 wbs_dat_i[31]
*403 wbs_dat_i[3]
*404 wbs_dat_i[4]
*405 wbs_dat_i[5]
*406 wbs_dat_i[6]
*407 wbs_dat_i[7]
*408 wbs_dat_i[8]
*409 wbs_dat_i[9]
*410 wbs_dat_o[0]
*411 wbs_dat_o[10]
*412 wbs_dat_o[11]
*413 wbs_dat_o[12]
*414 wbs_dat_o[13]
*415 wbs_dat_o[14]
*416 wbs_dat_o[15]
*417 wbs_dat_o[16]
*418 wbs_dat_o[17]
*419 wbs_dat_o[18]
*420 wbs_dat_o[19]
*421 wbs_dat_o[1]
*422 wbs_dat_o[20]
*423 wbs_dat_o[21]
*424 wbs_dat_o[22]
*425 wbs_dat_o[23]
*426 wbs_dat_o[24]
*427 wbs_dat_o[25]
*428 wbs_dat_o[26]
*429 wbs_dat_o[27]
*430 wbs_dat_o[28]
*431 wbs_dat_o[29]
*432 wbs_dat_o[2]
*433 wbs_dat_o[30]
*434 wbs_dat_o[31]
*435 wbs_dat_o[3]
*436 wbs_dat_o[4]
*437 wbs_dat_o[5]
*438 wbs_dat_o[6]
*439 wbs_dat_o[7]
*440 wbs_dat_o[8]
*441 wbs_dat_o[9]
*442 wbs_sel_i[0]
*443 wbs_sel_i[1]
*444 wbs_sel_i[2]
*445 wbs_sel_i[3]
*446 wbs_stb_i
*447 wbs_we_i
*448 u_macro_golden

*PORTS
analog_io[0] I
analog_io[10] I
analog_io[11] I
analog_io[12] I
analog_io[13] I
analog_io[14] I
analog_io[15] I
analog_io[16] I
analog_io[17] I
analog_io[18] I
analog_io[19] I
analog_io[1] I
analog_io[20] I
analog_io[21] I
analog_io[22] I
analog_io[23] I
analog_io[24] I
analog_io[25] I
analog_io[26] I
analog_io[27] I
analog_io[28] I
analog_io[2] I
analog_io[3] I
analog_io[4] I
analog_io[5] I
analog_io[6] I
analog_io[7] I
analog_io[8] I
analog_io[9] I
io_in[0] I
io_in[10] I
io_in[11] I
io_in[12] I
io_in[13] I
io_in[14] I
io_in[15] I
io_in[16] I
io_in[17] I
io_in[18] I
io_in[19] I
io_in[1] I
io_in[20] I
io_in[21] I
io_in[22] I
io_in[23] I
io_in[24] I
io_in[25] I
io_in[26] I
io_in[27] I
io_in[28] I
io_in[29] I
io_in[2] I
io_in[30] I
io_in[31] I
io_in[32] I
io_in[33] I
io_in[34] I
io_in[35] I
io_in[36] I
io_in[37] I
io_in[3] I
io_in[4] I
io_in[5] I
io_in[6] I
io_in[7] I
io_in[8] I
io_in[9] I
io_oeb[0] O
io_oeb[10] O
io_oeb[11] O
io_oeb[12] O
io_oeb[13] O
io_oeb[14] O
io_oeb[15] O
io_oeb[16] O
io_oeb[17] O
io_oeb[18] O
io_oeb[19] O
io_oeb[1] O
io_oeb[20] O
io_oeb[21] O
io_oeb[22] O
io_oeb[23] O
io_oeb[24] O
io_oeb[25] O
io_oeb[26] O
io_oeb[27] O
io_oeb[28] O
io_oeb[29] O
io_oeb[2] O
io_oeb[30] O
io_oeb[31] O
io_oeb[32] O
io_oeb[33] O
io_oeb[34] O
io_oeb[35] O
io_oeb[36] O
io_oeb[37] O
io_oeb[3] O
io_oeb[4] O
io_oeb[5] O
io_oeb[6] O
io_oeb[7] O
io_oeb[8] O
io_oeb[9] O
io_out[0] O
io_out[10] O
io_out[11] O
io_out[12] O
io_out[13] O
io_out[14] O
io_out[15] O
io_out[16] O
io_out[17] O
io_out[18] O
io_out[19] O
io_out[1] O
io_out[20] O
io_out[21] O
io_out[22] O
io_out[23] O
io_out[24] O
io_out[25] O
io_out[26] O
io_out[27] O
io_out[28] O
io_out[29] O
io_out[2] O
io_out[30] O
io_out[31] O
io_out[32] O
io_out[33] O
io_out[34] O
io_out[35] O
io_out[36] O
io_out[37] O
io_out[3] O
io_out[4] O
io_out[5] O
io_out[6] O
io_out[7] O
io_out[8] O
io_out[9] O
la_data_in[0] I
la_data_in[10] I
la_data_in[11] I
la_data_in[12] I
la_data_in[13] I
la_data_in[14] I
la_data_in[15] I
la_data_in[16] I
la_data_in[17] I
la_data_in[18] I
la_data_in[19] I
la_data_in[1] I
la_data_in[20] I
la_data_in[21] I
la_data_in[22] I
la_data_in[23] I
la_data_in[24] I
la_data_in[25] I
la_data_in[26] I
la_data_in[27] I
la_data_in[28] I
la_data_in[29] I
la_data_in[2] I
la_data_in[30] I
la_data_in[31] I
la_data_in[32] I
la_data_in[33] I
la_data_in[34] I
la_data_in[35] I
la_data_in[36] I
la_data_in[37] I
la_data_in[38] I
la_data_in[39] I
la_data_in[3] I
la_data_in[40] I
la_data_in[41] I
la_data_in[42] I
la_data_in[43] I
la_data_in[44] I
la_data_in[45] I
la_data_in[46] I
la_data_in[47] I
la_data_in[48] I
la_data_in[49] I
la_data_in[4] I
la_data_in[50] I
la_data_in[51] I
la_data_in[52] I
la_data_in[53] I
la_data_in[54] I
la_data_in[55] I
la_data_in[56] I
la_data_in[57] I
la_data_in[58] I
la_data_in[59] I
la_data_in[5] I
la_data_in[60] I
la_data_in[61] I
la_data_in[62] I
la_data_in[63] I
la_data_in[6] I
la_data_in[7] I
la_data_in[8] I
la_data_in[9] I
la_data_out[0] O
la_data_out[10] O
la_data_out[11] O
la_data_out[12] O
la_data_out[13] O
la_data_out[14] O
la_data_out[15] O
la_data_out[16] O
la_data_out[17] O
la_data_out[18] O
la_data_out[19] O
la_data_out[1] O
la_data_out[20] O
la_data_out[21] O
la_data_out[22] O
la_data_out[23] O
la_data_out[24] O
la_data_out[25] O
la_data_out[26] O
la_data_out[27] O
la_data_out[28] O
la_data_out[29] O
la_data_out[2] O
la_data_out[30] O
la_data_out[31] O
la_data_out[32] O
la_data_out[33] O
la_data_out[34] O
la_data_out[35] O
la_data_out[36] O
la_data_out[37] O
la_data_out[38] O
la_data_out[39] O
la_data_out[3] O
la_data_out[40] O
la_data_out[41] O
la_data_out[42] O
la_data_out[43] O
la_data_out[44] O
la_data_out[45] O
la_data_out[46] O
la_data_out[47] O
la_data_out[48] O
la_data_out[49] O
la_data_out[4] O
la_data_out[50] O
la_data_out[51] O
la_data_out[52] O
la_data_out[53] O
la_data_out[54] O
la_data_out[55] O
la_data_out[56] O
la_data_out[57] O
la_data_out[58] O
la_data_out[59] O
la_data_out[5] O
la_data_out[60] O
la_data_out[61] O
la_data_out[62] O
la_data_out[63] O
la_data_out[6] O
la_data_out[7] O
la_data_out[8] O
la_data_out[9] O
la_oenb[0] I
la_oenb[10] I
la_oenb[11] I
la_oenb[12] I
la_oenb[13] I
la_oenb[14] I
la_oenb[15] I
la_oenb[16] I
la_oenb[17] I
la_oenb[18] I
la_oenb[19] I
la_oenb[1] I
la_oenb[20] I
la_oenb[21] I
la_oenb[22] I
la_oenb[23] I
la_oenb[24] I
la_oenb[25] I
la_oenb[26] I
la_oenb[27] I
la_oenb[28] I
la_oenb[29] I
la_oenb[2] I
la_oenb[30] I
la_oenb[31] I
la_oenb[32] I
la_oenb[33] I
la_oenb[34] I
la_oenb[35] I
la_oenb[36] I
la_oenb[37] I
la_oenb[38] I
la_oenb[39] I
la_oenb[3] I
la_oenb[40] I
la_oenb[41] I
la_oenb[42] I
la_oenb[43] I
la_oenb[44] I
la_oenb[45] I
la_oenb[46] I
la_oenb[47] I
la_oenb[48] I
la_oenb[49] I
la_oenb[4] I
la_oenb[50] I
la_oenb[51] I
la_oenb[52] I
la_oenb[53] I
la_oenb[54] I
la_oenb[55] I
la_oenb[56] I
la_oenb[57] I
la_oenb[58] I
la_oenb[59] I
la_oenb[5] I
la_oenb[60] I
la_oenb[61] I
la_oenb[62] I
la_oenb[63] I
la_oenb[6] I
la_oenb[7] I
la_oenb[8] I
la_oenb[9] I
user_clock2 I
user_irq[0] O
user_irq[1] O
user_irq[2] O
wb_clk_i I
wb_rst_i I
wbs_ack_o O
wbs_adr_i[0] I
wbs_adr_i[10] I
wbs_adr_i[11] I
wbs_adr_i[12] I
wbs_adr_i[13] I
wbs_adr_i[14] I
wbs_adr_i[15] I
wbs_adr_i[16] I
wbs_adr_i[17] I
wbs_adr_i[18] I
wbs_adr_i[19] I
wbs_adr_i[1] I
wbs_adr_i[20] I
wbs_adr_i[21] I
wbs_adr_i[22] I
wbs_adr_i[23] I
wbs_adr_i[24] I
wbs_adr_i[25] I
wbs_adr_i[26] I
wbs_adr_i[27] I
wbs_adr_i[28] I
wbs_adr_i[29] I
wbs_adr_i[2] I
wbs_adr_i[30] I
wbs_adr_i[31] I
wbs_adr_i[3] I
wbs_adr_i[4] I
wbs_adr_i[5] I
wbs_adr_i[6] I
wbs_adr_i[7] I
wbs_adr_i[8] I
wbs_adr_i[9] I
wbs_cyc_i I
wbs_dat_i[0] I
wbs_dat_i[10] I
wbs_dat_i[11] I
wbs_dat_i[12] I
wbs_dat_i[13] I
wbs_dat_i[14] I
wbs_dat_i[15] I
wbs_dat_i[16] I
wbs_dat_i[17] I
wbs_dat_i[18] I
wbs_dat_i[19] I
wbs_dat_i[1] I
wbs_dat_i[20] I
wbs_dat_i[21] I
wbs_dat_i[22] I
wbs_dat_i[23] I
wbs_dat_i[24] I
wbs_dat_i[25] I
wbs_dat_i[26] I
wbs_dat_i[27] I
wbs_dat_i[28] I
wbs_dat_i[29] I
wbs_dat_i[2] I
wbs_dat_i[30] I
wbs_dat_i[31] I
wbs_dat_i[3] I
wbs_dat_i[4] I
wbs_dat_i[5] I
wbs_dat_i[6] I
wbs_dat_i[7] I
wbs_dat_i[8] I
wbs_dat_i[9] I
wbs_dat_o[0] O
wbs_dat_o[10] O
wbs_dat_o[11] O
wbs_dat_o[12] O
wbs_dat_o[13] O
wbs_dat_o[14] O
wbs_dat_o[15] O
wbs_dat_o[16] O
wbs_dat_o[17] O
wbs_dat_o[18] O
wbs_dat_o[19] O
wbs_dat_o[1] O
wbs_dat_o[20] O
wbs_dat_o[21] O
wbs_dat_o[22] O
wbs_dat_o[23] O
wbs_dat_o[24] O
wbs_dat_o[25] O
wbs_dat_o[26] O
wbs_dat_o[27] O
wbs_dat_o[28] O
wbs_dat_o[29] O
wbs_dat_o[2] O
wbs_dat_o[30] O
wbs_dat_o[31] O
wbs_dat_o[3] O
wbs_dat_o[4] O
wbs_dat_o[5] O
wbs_dat_o[6] O
wbs_dat_o[7] O
wbs_dat_o[8] O
wbs_dat_o[9] O
wbs_sel_i[0] I
wbs_sel_i[1] I
wbs_sel_i[2] I
wbs_sel_i[3] I
wbs_stb_i I
wbs_we_i I

*D_NET *30 0.564729
*CONN
*P io_in[0] I
*I *448:io_in[0] I *D macro_golden
*CAP
1 io_in[0] 0.00051408
2 *448:io_in[0] 0.00140657
3 *30:11 0.0622523
4 *30:10 0.0608457
5 *30:8 0.0505701
6 *30:7 0.0510842
7 *30:8 *68:12 0.26966
8 *30:8 *79:11 0.00165314
9 *30:8 *90:11 6.15609e-06
10 *30:8 *99:17 0.00015947
11 *30:8 *137:13 0
12 *30:11 *31:19 0.00894186
13 *30:11 *32:19 0.000198308
14 *30:11 *47:19 0
15 *30:11 *50:19 0
16 *30:11 *89:8 0.0564395
17 *30:11 *91:8 0.000840348
18 *30:11 *104:8 0
19 *30:11 *129:8 0.000157378
*RES
1 io_in[0] *30:7 8.685 
2 *30:7 *30:8 734.31 
3 *30:8 *30:10 4.5 
4 *30:10 *30:11 569.97 
5 *30:11 *448:io_in[0] 13.905 
*END

*D_NET *31 0.255285
*CONN
*P io_in[10] I
*I *448:io_in[10] I *D macro_golden
*CAP
1 io_in[10] 0.0002319
2 *448:io_in[10] 0.00165351
3 *31:19 0.00546897
4 *31:18 0.00381546
5 *31:16 0.0165117
6 *31:15 0.0165117
7 *31:13 0.0417013
8 *31:11 0.0419332
9 *448:io_in[10] *41:16 9.79733e-05
10 *448:io_in[10] *47:16 0
11 *448:io_in[10] *69:7 0
12 *31:19 *32:19 0.0778933
13 *31:19 *87:8 0.000904165
14 *31:19 *129:8 0.0396203
15 *30:11 *31:19 0.00894186
*RES
1 io_in[10] *31:11 2.655 
2 *31:11 *31:13 324.27 
3 *31:13 *31:15 4.5 
4 *31:15 *31:16 125.01 
5 *31:16 *31:18 4.5 
6 *31:18 *31:19 201.33 
7 *31:19 *448:io_in[10] 14.625 
*END

*D_NET *32 0.227396
*CONN
*P io_in[11] I
*I *448:io_in[11] I *D macro_golden
*CAP
1 io_in[11] 0.000124112
2 *448:io_in[11] 0.00176459
3 *32:19 0.0104756
4 *32:18 0.00871106
5 *32:16 0.00706975
6 *32:15 0.00706975
7 *32:13 0.0413558
8 *32:11 0.0414799
9 *448:io_in[11] *70:7 0
10 *32:19 *56:11 0
11 *32:19 *87:8 0.031254
12 *30:11 *32:19 0.000198308
13 *31:19 *32:19 0.0778933
*RES
1 io_in[11] *32:11 1.755 
2 *32:11 *32:13 321.57 
3 *32:13 *32:15 4.5 
4 *32:15 *32:16 52.29 
5 *32:16 *32:18 4.5 
6 *32:18 *32:19 199.17 
7 *32:19 *448:io_in[11] 14.805 
*END

*D_NET *33 0.155644
*CONN
*P io_in[12] I
*I *448:io_in[12] I *D macro_golden
*CAP
1 io_in[12] 0.0617219
2 *448:io_in[12] 0.0029008
3 *33:13 0.00440654
4 *33:5 0.0632277
5 *448:io_in[12] *108:11 0.00173468
6 *33:5 *37:16 0
7 *33:5 *39:16 0
8 *33:5 *40:16 0.00593453
9 *33:5 *42:14 2.71408e-06
10 *33:5 *44:16 0
11 *33:5 *75:10 0
12 *33:5 *111:10 0.00459566
13 *33:13 *35:16 0
14 *33:13 *72:17 0
15 *33:13 *73:9 0
16 *33:13 *78:12 0.00144676
17 *33:13 *111:9 0.00445177
18 *33:13 *136:16 0
19 *33:13 *141:14 0.00522108
*RES
1 io_in[12] *33:5 503.865 
2 *33:5 *33:13 39.42 
3 *33:13 *448:io_in[12] 19.755 
*END

*D_NET *34 0.161553
*CONN
*P io_in[13] I
*I *448:io_in[13] I *D macro_golden
*CAP
1 io_in[13] 0.0002319
2 *448:io_in[13] 0.00248342
3 *34:16 0.0142926
4 *34:15 0.0118092
5 *34:13 0.0640074
6 *34:11 0.0642393
7 *448:io_in[13] *54:11 0.00204953
8 *448:io_in[13] *72:16 0.00194625
9 *448:io_in[13] *86:10 0
10 *34:16 *74:9 0.000493457
11 *34:16 *112:7 0
*RES
1 io_in[13] *34:11 2.655 
2 *34:11 *34:13 499.77 
3 *34:13 *34:15 4.5 
4 *34:15 *34:16 87.93 
5 *34:16 *448:io_in[13] 33.615 
*END

*D_NET *35 0.19033
*CONN
*P io_in[14] I
*I *448:io_in[14] I *D macro_golden
*CAP
1 io_in[14] 0.000124112
2 *448:io_in[14] 0.00459787
3 *35:16 0.0237372
4 *35:15 0.0191393
5 *35:13 0.0613665
6 *35:11 0.0614906
7 *448:io_in[14] *42:14 0
8 *448:io_in[14] *71:13 0
9 *448:io_in[14] *72:16 4.37922e-05
10 *448:io_in[14] *73:9 0.0015137
11 *448:io_in[14] *82:12 0
12 *35:13 *81:10 0
13 *35:13 *122:14 0.0183169
14 *35:16 *74:9 0
15 *35:16 *111:9 0
16 *33:13 *35:16 0
*RES
1 io_in[14] *35:11 1.755 
2 *35:11 *35:13 502.47 
3 *35:13 *35:15 4.5 
4 *35:15 *35:16 145.89 
5 *35:16 *448:io_in[14] 41.805 
*END

*D_NET *36 0.227885
*CONN
*P io_in[15] I
*I *448:io_in[15] I *D macro_golden
*CAP
1 io_in[15] 0.00107486
2 *448:io_in[15] 0.00395371
3 *36:11 0.0294476
4 *36:10 0.0254939
5 *36:8 0.0390345
6 *36:7 0.0401094
7 *448:io_in[15] *74:9 0
8 *448:io_in[15] *86:10 0.00020563
9 *448:io_in[15] *109:14 0.00106115
10 *448:io_in[15] *111:9 0.00232514
11 *448:io_in[15] *132:10 0.00149447
12 *36:8 io_out[16] 0.00927868
13 *36:8 *40:10 0.000254726
14 *36:8 *75:16 0.0311482
15 *36:8 *114:14 0.0355108
16 *36:8 *121:14 0.00749267
*RES
1 io_in[15] *36:7 12.825 
2 *36:7 *36:8 449.73 
3 *36:8 *36:10 4.5 
4 *36:10 *36:11 192.33 
5 *36:11 *448:io_in[15] 44.505 
*END

*D_NET *37 0.185775
*CONN
*P io_in[16] I
*I *448:io_in[16] I *D macro_golden
*CAP
1 io_in[16] 0.000345489
2 *448:io_in[16] 0.00418731
3 *37:16 0.0404343
4 *37:15 0.0362469
5 *37:13 0.0250141
6 *37:11 0.0253596
7 *448:io_in[16] *112:7 0.00188339
8 *37:16 *39:16 0.0505129
9 *37:16 *42:14 0.00179096
10 *33:5 *37:16 0
*RES
1 io_in[16] *37:11 3.195 
2 *37:11 *37:13 191.97 
3 *37:13 *37:15 4.5 
4 *37:15 *37:16 347.67 
5 *37:16 *448:io_in[16] 35.415 
*END

*D_NET *38 0.126273
*CONN
*P io_in[17] I
*I *448:io_in[17] I *D macro_golden
*CAP
1 io_in[17] 0.000247817
2 *448:io_in[17] 0.00231503
3 *38:16 0.0266483
4 *38:15 0.0243333
5 *38:13 0.0272925
6 *38:11 0.0275403
7 *448:io_in[17] *76:13 0
8 *38:16 *54:11 0.012181
9 *38:16 *55:19 0.000447556
10 *38:16 *62:11 0
11 *38:16 *86:10 0
12 *38:16 *101:8 0.00526741
*RES
1 io_in[17] *38:11 2.655 
2 *38:11 *38:13 208.17 
3 *38:13 *38:15 4.5 
4 *38:15 *38:16 236.25 
5 *38:16 *448:io_in[17] 17.865 
*END

*D_NET *39 0.142406
*CONN
*P io_in[18] I
*I *448:io_in[18] I *D macro_golden
*CAP
1 io_in[18] 0.000178873
2 *448:io_in[18] 0.0037751
3 *39:16 0.0092587
4 *39:15 0.0054836
5 *39:13 0.0250225
6 *39:11 0.0252013
7 *448:io_in[18] *76:13 6.24903e-05
8 *448:io_in[18] *77:15 0.00547647
9 *448:io_in[18] *114:10 0.000373778
10 *448:io_in[18] *116:13 0
11 *39:16 *42:14 0.00319985
12 *39:16 *48:21 0.0114916
13 *39:16 *111:10 0.0023685
14 *33:5 *39:16 0
15 *37:16 *39:16 0.0505129
*RES
1 io_in[18] *39:11 2.115 
2 *39:11 *39:13 191.79 
3 *39:13 *39:15 4.5 
4 *39:15 *39:16 126.99 
5 *39:16 *448:io_in[18] 35.235 
*END

*D_NET *40 0.0691995
*CONN
*P io_in[19] I
*I *448:io_in[19] I *D macro_golden
*CAP
1 io_in[19] 0.001352
2 *448:io_in[19] 0.00481709
3 *40:16 0.0056002
4 *40:11 0.024547
5 *40:10 0.0251159
6 *448:io_in[19] *78:9 0.00110451
7 *448:io_in[19] *115:13 0
8 *40:11 *448:io_in[22] 2.64408e-05
9 *40:11 *120:13 0
10 *40:16 *44:16 0.000447188
11 *40:16 *75:10 0
12 *33:5 *40:16 0.00593453
13 *36:8 *40:10 0.000254726
*RES
1 io_in[19] *40:10 19.935 
2 *40:10 *40:11 181.53 
3 *40:11 *40:16 23.85 
4 *40:16 *448:io_in[19] 31.635 
*END

*D_NET *41 0.506078
*CONN
*P io_in[1] I
*I *448:io_in[1] I *D macro_golden
*CAP
1 io_in[1] 0.00130626
2 *448:io_in[1] 0.000940019
3 *41:19 0.00186476
4 *41:16 0.00163831
5 *41:11 0.0444946
6 *41:10 0.043781
7 *41:8 0.0588843
8 *41:7 0.0601906
9 *448:io_in[1] *79:7 0
10 *41:8 io_out[11] 0.00891951
11 *41:8 *117:17 0.163213
12 *41:11 *59:19 0.050942
13 *41:11 *61:11 0.0420555
14 *41:11 *66:19 0
15 *41:11 *88:8 0
16 *41:11 *95:8 0
17 *41:11 *103:5 0.00402602
18 *41:11 *106:7 0
19 *41:16 *143:7 0.000440588
20 *41:19 *79:8 0
21 *41:19 *96:8 0
22 *41:19 *125:8 0.0169875
23 *41:19 *128:8 0.00629656
24 *448:io_in[10] *41:16 9.79733e-05
*RES
1 io_in[1] *41:7 12.825 
2 *41:7 *41:8 670.77 
3 *41:8 *41:10 4.5 
4 *41:10 *41:11 518.31 
5 *41:11 *41:16 14.49 
6 *41:16 *41:19 47.25 
7 *41:19 *448:io_in[1] 5.265 
*END

*D_NET *42 0.0982799
*CONN
*P io_in[20] I
*I *448:io_in[20] I *D macro_golden
*CAP
1 io_in[20] 0.00164707
2 *448:io_in[20] 0.00421273
3 *42:14 0.0127108
4 *42:13 0.00849804
5 *42:11 0.0238985
6 *42:10 0.0255456
7 *448:io_in[20] *80:7 0
8 *448:io_in[20] *114:11 0.000216253
9 *448:io_in[20] *115:13 0
10 *448:io_in[20] *116:12 0.00585847
11 *42:10 *121:14 0.000265049
12 *42:14 *72:16 0.000826179
13 *42:14 *111:10 0.00960773
14 *448:io_in[14] *42:14 0
15 *33:5 *42:14 2.71408e-06
16 *37:16 *42:14 0.00179096
17 *39:16 *42:14 0.00319985
*RES
1 io_in[20] *42:10 21.555 
2 *42:10 *42:11 182.79 
3 *42:11 *42:13 4.5 
4 *42:13 *42:14 87.93 
5 *42:14 *448:io_in[20] 46.528 
*END

*D_NET *43 0.137444
*CONN
*P io_in[21] I
*I *448:io_in[21] I *D macro_golden
*CAP
1 io_in[21] 0.000345489
2 *448:io_in[21] 0.00388519
3 *43:16 0.0271082
4 *43:15 0.023223
5 *43:13 0.0257604
6 *43:11 0.0261059
7 *448:io_in[21] *79:8 0.00138557
8 *448:io_in[21] *80:7 0.000357642
9 *448:io_in[21] *81:7 0.000379934
10 *448:io_in[21] *118:7 0
11 *448:io_in[21] *118:9 0
12 *448:io_in[21] *121:11 9.10306e-05
13 *448:io_in[21] *128:8 0.000247204
14 *43:16 *71:14 0.012806
15 *43:16 *73:10 0.0119518
16 *43:16 *119:14 0.00379701
17 *43:16 *134:10 0
18 *43:16 *138:10 0
*RES
1 io_in[21] *43:11 3.195 
2 *43:11 *43:13 197.19 
3 *43:13 *43:15 4.5 
4 *43:15 *43:16 203.85 
5 *43:16 *448:io_in[21] 41.445 
*END

*D_NET *44 0.166008
*CONN
*P io_in[22] I
*I *448:io_in[22] I *D macro_golden
*CAP
1 io_in[22] 0.000247817
2 *448:io_in[22] 0.00546776
3 *44:16 0.0527877
4 *44:15 0.0473199
5 *44:13 0.0246638
6 *44:11 0.0249116
7 *448:io_in[22] *119:13 0
8 *44:16 *75:10 0.0101358
9 *44:16 *124:16 0
10 *33:5 *44:16 0
11 *40:11 *448:io_in[22] 2.64408e-05
12 *40:16 *44:16 0.000447188
*RES
1 io_in[22] *44:11 2.655 
2 *44:11 *44:13 189.27 
3 *44:13 *44:15 4.5 
4 *44:15 *44:16 316.17 
5 *44:16 *448:io_in[22] 38.115 
*END

*D_NET *45 0.205936
*CONN
*P io_in[23] I
*I *448:io_in[23] I *D macro_golden
*CAP
1 io_in[23] 0.00314371
2 *448:io_in[23] 0.00496065
3 *45:14 0.0499853
4 *45:13 0.0450247
5 *45:11 0.0231688
6 *45:10 0.0263125
7 *448:io_in[23] *83:13 0.00454347
8 *448:io_in[23] *120:12 0
9 *45:10 *121:14 0.0107482
10 *45:14 *74:10 0.0149611
11 *45:14 *85:10 0.0230876
12 *45:14 *124:16 0
*RES
1 io_in[23] *45:10 44.235 
2 *45:10 *45:11 178.11 
3 *45:11 *45:13 4.5 
4 *45:13 *45:14 398.43 
5 *45:14 *448:io_in[23] 40.635 
*END

*D_NET *46 0.18068
*CONN
*P io_in[24] I
*I *448:io_in[24] I *D macro_golden
*CAP
1 io_in[24] 0.000323383
2 *448:io_in[24] 5.17084e-05
3 *46:16 0.0249281
4 *46:15 0.0248764
5 *46:13 0.063912
6 *46:11 0.0642353
7 *46:16 *84:10 0.00235348
8 *46:16 *121:10 0
9 *46:16 *122:11 0
*RES
1 io_in[24] *46:11 3.015 
2 *46:11 *46:13 499.05 
3 *46:13 *46:15 4.5 
4 *46:15 *46:16 190.35 
5 *46:16 *448:io_in[24] 0.405 
*END

*D_NET *47 0.209515
*CONN
*P io_in[25] I
*I *448:io_in[25] I *D macro_golden
*CAP
1 io_in[25] 0.000276075
2 *448:io_in[25] 0.00104675
3 *47:19 0.0063289
4 *47:18 0.00528215
5 *47:16 0.0152467
6 *47:15 0.0152467
7 *47:13 0.0682831
8 *47:11 0.0685592
9 *448:io_in[25] *85:9 0.0011501
10 *448:io_in[25] *122:10 0
11 *47:19 *50:19 0.0280953
12 *448:io_in[10] *47:16 0
13 *30:11 *47:19 0
*RES
1 io_in[25] *47:11 2.655 
2 *47:11 *47:13 432.81 
3 *47:13 *47:15 4.5 
4 *47:15 *47:16 112.23 
5 *47:16 *47:18 4.5 
6 *47:18 *47:19 71.55 
7 *47:19 *448:io_in[25] 12.465 
*END

*D_NET *48 0.16766
*CONN
*P io_in[26] I
*I *448:io_in[26] I *D macro_golden
*CAP
1 io_in[26] 0.000235896
2 *448:io_in[26] 0.00421023
3 *48:21 0.00440676
4 *48:18 0.0016297
5 *48:13 0.0628462
6 *48:11 0.0616489
7 *448:io_in[26] *123:7 0.00191589
8 *48:18 *80:7 0
9 *48:18 *114:11 0.00779058
10 *48:21 *111:10 0.0114839
11 *39:16 *48:21 0.0114916
*RES
1 io_in[26] *48:11 2.295 
2 *48:11 *48:13 478.89 
3 *48:13 *48:18 29.07 
4 *48:18 *48:21 33.57 
5 *48:21 *448:io_in[26] 31.275 
*END

*D_NET *49 0.228562
*CONN
*P io_in[27] I
*I *448:io_in[27] I *D macro_golden
*CAP
1 io_in[27] 0.00464105
2 *448:io_in[27] 0.00128507
3 *49:11 0.023963
4 *49:10 0.0226779
5 *49:8 0.00464105
6 *448:io_in[27] *87:7 0
7 *49:8 *57:8 0.00696549
8 *49:11 *50:19 0.0215276
9 *49:11 *96:8 0.0777719
10 *49:11 *104:8 0.0358055
11 *49:11 *108:12 0.0292837
*RES
1 io_in[27] *49:8 47.835 
2 *49:8 *49:10 4.5 
3 *49:10 *49:11 496.89 
4 *49:11 *448:io_in[27] 11.925 
*END

*D_NET *50 0.216233
*CONN
*P io_in[28] I
*I *448:io_in[28] I *D macro_golden
*CAP
1 io_in[28] 0.000134753
2 *448:io_in[28] 0.00133702
3 *50:19 0.0119382
4 *50:18 0.0106012
5 *50:16 0.0129439
6 *50:15 0.0129439
7 *50:13 0.0394064
8 *50:11 0.0395411
9 *448:io_in[28] *88:7 0
10 *448:io_in[28] *125:7 0
11 *50:19 *89:8 0
12 *50:19 *104:8 0.0377635
13 *30:11 *50:19 0
14 *47:19 *50:19 0.0280953
15 *49:11 *50:19 0.0215276
*RES
1 io_in[28] *50:11 1.575 
2 *50:11 *50:13 305.91 
3 *50:13 *50:15 4.5 
4 *50:15 *50:16 98.37 
5 *50:16 *50:18 4.5 
6 *50:18 *50:19 213.03 
7 *50:19 *448:io_in[28] 12.285 
*END

*D_NET *51 0.414056
*CONN
*P io_in[29] I
*I *448:io_in[29] I *D macro_golden
*CAP
1 io_in[29] 0.00198056
2 *448:io_in[29] 0.00203151
3 *51:11 0.00858972
4 *51:10 0.00655822
5 *51:8 0.0116433
6 *51:7 0.0136239
7 *448:io_in[29] *89:7 0
8 *448:io_in[29] *126:7 0
9 *51:8 *96:11 0.0655983
10 *51:11 *55:19 0.18576
11 *51:11 *56:11 0.0727831
12 *51:11 *101:8 0.0454873
*RES
1 io_in[29] *51:7 18.945 
2 *51:7 *51:8 172.35 
3 *51:8 *51:10 4.5 
4 *51:10 *51:11 509.31 
5 *51:11 *448:io_in[29] 16.965 
*END

*D_NET *52 0.924243
*CONN
*P io_in[2] I
*I *448:io_in[2] I *D macro_golden
*CAP
1 io_in[2] 0.000449407
2 *448:io_in[2] 0.000264178
3 *52:11 0.00230089
4 *52:10 0.00203671
5 *52:8 0.00272894
6 *52:7 0.00317835
7 *52:8 *79:11 0.241406
8 *52:8 *90:11 0.22726
9 *52:11 *68:9 0.224197
10 *52:11 *92:9 0.00345194
11 *52:11 *139:11 0.21697
*RES
1 io_in[2] *52:7 8.145 
2 *52:7 *52:8 614.25 
3 *52:8 *52:10 4.5 
4 *52:10 *52:11 560.79 
5 *52:11 *448:io_in[2] 15.21 
*END

*D_NET *53 0.400498
*CONN
*P io_in[30] I
*I *448:io_in[30] I *D macro_golden
*CAP
1 io_in[30] 0.00179421
2 *448:io_in[30] 0.00206475
3 *53:15 0.0073119
4 *53:14 0.00524715
5 *53:12 0.0323322
6 *53:11 0.0323322
7 *53:9 0.0175843
8 *53:7 0.0193785
9 *448:io_in[30] *91:7 0
10 *448:io_in[30] *127:7 0
11 *53:9 *411:14 0
12 *53:9 *421:8 0
13 *53:12 *411:17 0
14 *53:15 *54:11 0.130417
15 *53:15 *55:19 0.152036
*RES
1 io_in[30] *53:7 13.185 
2 *53:7 *53:9 133.74 
3 *53:9 *53:11 4.5 
4 *53:11 *53:12 243.81 
5 *53:12 *53:14 4.5 
6 *53:14 *53:15 382.05 
7 *53:15 *448:io_in[30] 17.325 
*END

*D_NET *54 0.401173
*CONN
*P io_in[31] I
*I *448:io_in[31] I *D macro_golden
*CAP
1 io_in[31] 0.0265764
2 *448:io_in[31] 0.00216054
3 *54:11 0.0202598
4 *54:10 0.0180993
5 *54:8 0.0221497
6 *54:7 0.0221497
7 *54:5 0.0265764
8 *448:io_in[31] *129:7 0
9 *54:8 *58:16 0.117712
10 *54:8 *353:13 0
11 *54:11 *55:19 0.000841087
12 *54:11 *86:10 0
13 *448:io_in[13] *54:11 0.00204953
14 *38:16 *54:11 0.012181
15 *53:15 *54:11 0.130417
*RES
1 io_in[31] *54:5 200.745 
2 *54:5 *54:7 4.5 
3 *54:7 *54:8 314.19 
4 *54:8 *54:10 4.5 
5 *54:10 *54:11 332.73 
6 *54:11 *448:io_in[31] 17.505 
*END

*D_NET *55 0.478565
*CONN
*P io_in[32] I
*I *448:io_in[32] I *D macro_golden
*CAP
1 io_in[32] 0.00035465
2 *448:io_in[32] 0.00197913
3 *55:19 0.0100292
4 *55:18 0.00805011
5 *55:16 0.0504932
6 *55:15 0.0504932
7 *55:13 0.00756439
8 *55:11 0.00791905
9 *448:io_in[32] *93:7 0
10 *448:io_in[32] *130:7 0
11 *55:19 *101:8 0.00259688
12 *38:16 *55:19 0.000447556
13 *51:11 *55:19 0.18576
14 *53:15 *55:19 0.152036
15 *54:11 *55:19 0.000841087
*RES
1 io_in[32] *55:11 2.835 
2 *55:11 *55:13 57.51 
3 *55:13 *55:15 4.5 
4 *55:15 *55:16 386.73 
5 *55:16 *55:18 4.5 
6 *55:18 *55:19 480.87 
7 *55:19 *448:io_in[32] 17.145 
*END

*D_NET *56 0.326654
*CONN
*P io_in[33] I
*I *448:io_in[33] I *D macro_golden
*CAP
1 io_in[33] 0.00117627
2 *448:io_in[33] 0.00120685
3 *56:11 0.0391179
4 *56:10 0.037911
5 *56:8 0.0590842
6 *56:7 0.0602605
7 *448:io_in[33] *94:13 0.00194435
8 *56:11 *87:8 0
9 *56:11 *101:8 0.05317
10 *32:19 *56:11 0
11 *51:11 *56:11 0.0727831
*RES